download/pglib-opf-master/api/pglib_opf_case73_ieee_rts__api.m
%%%%%%%%%%%%%%%%%%%%%%%%%%%%%%%%%%%%%%%%%%%%%%%%%%%%%%%%%%%%%%%%%%%%%%%%%%%
%%%%                                                                  %%%%%
%%%%    IEEE PES Power Grid Library - Optimal Power Flow - v19.05     %%%%%
%%%%          (https://github.com/power-grid-lib/pglib-opf)           %%%%%
%%%%             Benchmark Group - Active Power Increase              %%%%%
%%%%                         08 - May - 2019                          %%%%%
%%%%                                                                  %%%%%
%%%%%%%%%%%%%%%%%%%%%%%%%%%%%%%%%%%%%%%%%%%%%%%%%%%%%%%%%%%%%%%%%%%%%%%%%%%
function mpc = pglib_opf_case73_ieee_rts__api
mpc.version = '2';
mpc.baseMVA = 100.0;

%% area data
%	area	refbus
mpc.areas = [
	1	 101;
	2	 201;
	3	 301;
];

%% bus data
%	bus_i	type	Pd	Qd	Gs	Bs	area	Vm	Va	baseKV	zone	Vmax	Vmin
mpc.bus = [
	101	 2	 207.37	 22.00	 0.0	 0.0	 1	    1.00000	    0.00000	 138.0	 1	    1.05000	    0.95000;
	102	 2	 186.24	 20.00	 0.0	 0.0	 1	    1.00000	    0.00000	 138.0	 1	    1.05000	    0.95000;
	103	 1	 345.61	 37.00	 0.0	 0.0	 1	    1.00000	    0.00000	 138.0	 1	    1.05000	    0.95000;
	104	 1	 142.08	 15.00	 0.0	 0.0	 1	    1.00000	    0.00000	 138.0	 1	    1.05000	    0.95000;
	105	 1	 136.32	 14.00	 0.0	 0.0	 1	    1.00000	    0.00000	 138.0	 1	    1.05000	    0.95000;
	106	 1	 261.13	 28.00	 0.0	 -100.0	 1	    1.00000	    0.00000	 138.0	 1	    1.05000	    0.95000;
	107	 2	 240.01	 25.00	 0.0	 0.0	 1	    1.00000	    0.00000	 138.0	 1	    1.05000	    0.95000;
	108	 1	 328.33	 35.00	 0.0	 0.0	 1	    1.00000	    0.00000	 138.0	 1	    1.05000	    0.95000;
	109	 1	 336.01	 36.00	 0.0	 0.0	 1	    1.00000	    0.00000	 138.0	 1	    1.05000	    0.95000;
	110	 1	 374.41	 40.00	 0.0	 0.0	 1	    1.00000	    0.00000	 138.0	 1	    1.05000	    0.95000;
	111	 1	 0.0	 0.0	 0.0	 0.0	 1	    1.00000	    0.00000	 230.0	 1	    1.05000	    0.95000;
	112	 1	 0.0	 0.0	 0.0	 0.0	 1	    1.00000	    0.00000	 230.0	 1	    1.05000	    0.95000;
	113	 3	 508.81	 54.00	 0.0	 0.0	 1	    1.00000	    0.00000	 230.0	 1	    1.05000	    0.95000;
	114	 2	 372.49	 39.00	 0.0	 0.0	 1	    1.00000	    0.00000	 230.0	 1	    1.05000	    0.95000;
	115	 2	 608.66	 64.00	 0.0	 0.0	 1	    1.00000	    0.00000	 230.0	 1	    1.05000	    0.95000;
	116	 2	 192.00	 20.00	 0.0	 0.0	 1	    1.00000	    0.00000	 230.0	 1	    1.05000	    0.95000;
	117	 1	 0.0	 0.0	 0.0	 0.0	 1	    1.00000	    0.00000	 230.0	 1	    1.05000	    0.95000;
	118	 2	 639.38	 68.00	 0.0	 0.0	 1	    1.00000	    0.00000	 230.0	 1	    1.05000	    0.95000;
	119	 1	 347.53	 37.00	 0.0	 0.0	 1	    1.00000	    0.00000	 230.0	 1	    1.05000	    0.95000;
	120	 1	 245.77	 26.00	 0.0	 0.0	 1	    1.00000	    0.00000	 230.0	 1	    1.05000	    0.95000;
	121	 2	 0.0	 0.0	 0.0	 0.0	 1	    1.00000	    0.00000	 230.0	 1	    1.05000	    0.95000;
	122	 2	 0.0	 0.0	 0.0	 0.0	 1	    1.00000	    0.00000	 230.0	 1	    1.05000	    0.95000;
	123	 2	 0.0	 0.0	 0.0	 0.0	 1	    1.00000	    0.00000	 230.0	 1	    1.05000	    0.95000;
	124	 1	 0.0	 0.0	 0.0	 0.0	 1	    1.00000	    0.00000	 230.0	 1	    1.05000	    0.95000;
	201	 2	 207.37	 22.00	 0.0	 0.0	 2	    1.00000	    0.00000	 138.0	 2	    1.05000	    0.95000;
	202	 2	 186.24	 20.00	 0.0	 0.0	 2	    1.00000	    0.00000	 138.0	 2	    1.05000	    0.95000;
	203	 1	 345.61	 37.00	 0.0	 0.0	 2	    1.00000	    0.00000	 138.0	 2	    1.05000	    0.95000;
	204	 1	 142.08	 15.00	 0.0	 0.0	 2	    1.00000	    0.00000	 138.0	 2	    1.05000	    0.95000;
	205	 1	 136.32	 14.00	 0.0	 0.0	 2	    1.00000	    0.00000	 138.0	 2	    1.05000	    0.95000;
	206	 1	 261.13	 28.00	 0.0	 -100.0	 2	    1.00000	    0.00000	 138.0	 2	    1.05000	    0.95000;
	207	 2	 240.01	 25.00	 0.0	 0.0	 2	    1.00000	    0.00000	 138.0	 2	    1.05000	    0.95000;
	208	 1	 328.33	 35.00	 0.0	 0.0	 2	    1.00000	    0.00000	 138.0	 2	    1.05000	    0.95000;
	209	 1	 336.01	 36.00	 0.0	 0.0	 2	    1.00000	    0.00000	 138.0	 2	    1.05000	    0.95000;
	210	 1	 374.41	 40.00	 0.0	 0.0	 2	    1.00000	    0.00000	 138.0	 2	    1.05000	    0.95000;
	211	 1	 0.0	 0.0	 0.0	 0.0	 2	    1.00000	    0.00000	 230.0	 2	    1.05000	    0.95000;
	212	 1	 0.0	 0.0	 0.0	 0.0	 2	    1.00000	    0.00000	 230.0	 2	    1.05000	    0.95000;
	213	 2	 508.81	 54.00	 0.0	 0.0	 2	    1.00000	    0.00000	 230.0	 2	    1.05000	    0.95000;
	214	 2	 372.49	 39.00	 0.0	 0.0	 2	    1.00000	    0.00000	 230.0	 2	    1.05000	    0.95000;
	215	 2	 608.66	 64.00	 0.0	 0.0	 2	    1.00000	    0.00000	 230.0	 2	    1.05000	    0.95000;
	216	 2	 192.00	 20.00	 0.0	 0.0	 2	    1.00000	    0.00000	 230.0	 2	    1.05000	    0.95000;
	217	 1	 0.0	 0.0	 0.0	 0.0	 2	    1.00000	    0.00000	 230.0	 2	    1.05000	    0.95000;
	218	 2	 639.38	 68.00	 0.0	 0.0	 2	    1.00000	    0.00000	 230.0	 2	    1.05000	    0.95000;
	219	 1	 347.53	 37.00	 0.0	 0.0	 2	    1.00000	    0.00000	 230.0	 2	    1.05000	    0.95000;
	220	 1	 245.77	 26.00	 0.0	 0.0	 2	    1.00000	    0.00000	 230.0	 2	    1.05000	    0.95000;
	221	 2	 0.0	 0.0	 0.0	 0.0	 2	    1.00000	    0.00000	 230.0	 2	    1.05000	    0.95000;
	222	 2	 0.0	 0.0	 0.0	 0.0	 2	    1.00000	    0.00000	 230.0	 2	    1.05000	    0.95000;
	223	 2	 0.0	 0.0	 0.0	 0.0	 2	    1.00000	    0.00000	 230.0	 2	    1.05000	    0.95000;
	224	 1	 0.0	 0.0	 0.0	 0.0	 2	    1.00000	    0.00000	 230.0	 2	    1.05000	    0.95000;
	301	 2	 207.37	 22.00	 0.0	 0.0	 3	    1.00000	    0.00000	 138.0	 3	    1.05000	    0.95000;
	302	 2	 186.24	 20.00	 0.0	 0.0	 3	    1.00000	    0.00000	 138.0	 3	    1.05000	    0.95000;
	303	 1	 345.61	 37.00	 0.0	 0.0	 3	    1.00000	    0.00000	 138.0	 3	    1.05000	    0.95000;
	304	 1	 142.08	 15.00	 0.0	 0.0	 3	    1.00000	    0.00000	 138.0	 3	    1.05000	    0.95000;
	305	 1	 136.32	 14.00	 0.0	 0.0	 3	    1.00000	    0.00000	 138.0	 3	    1.05000	    0.95000;
	306	 1	 261.13	 28.00	 0.0	 -100.0	 3	    1.00000	    0.00000	 138.0	 3	    1.05000	    0.95000;
	307	 2	 240.01	 25.00	 0.0	 0.0	 3	    1.00000	    0.00000	 138.0	 3	    1.05000	    0.95000;
	308	 1	 328.33	 35.00	 0.0	 0.0	 3	    1.00000	    0.00000	 138.0	 3	    1.05000	    0.95000;
	309	 1	 336.01	 36.00	 0.0	 0.0	 3	    1.00000	    0.00000	 138.0	 3	    1.05000	    0.95000;
	310	 1	 374.41	 40.00	 0.0	 0.0	 3	    1.00000	    0.00000	 138.0	 3	    1.05000	    0.95000;
	311	 1	 0.0	 0.0	 0.0	 0.0	 3	    1.00000	    0.00000	 230.0	 3	    1.05000	    0.95000;
	312	 1	 0.0	 0.0	 0.0	 0.0	 3	    1.00000	    0.00000	 230.0	 3	    1.05000	    0.95000;
	313	 2	 508.81	 54.00	 0.0	 0.0	 3	    1.00000	    0.00000	 230.0	 3	    1.05000	    0.95000;
	314	 2	 372.49	 39.00	 0.0	 0.0	 3	    1.00000	    0.00000	 230.0	 3	    1.05000	    0.95000;
	315	 2	 608.66	 64.00	 0.0	 0.0	 3	    1.00000	    0.00000	 230.0	 3	    1.05000	    0.95000;
	316	 2	 192.00	 20.00	 0.0	 0.0	 3	    1.00000	    0.00000	 230.0	 3	    1.05000	    0.95000;
	317	 1	 0.0	 0.0	 0.0	 0.0	 3	    1.00000	    0.00000	 230.0	 3	    1.05000	    0.95000;
	318	 2	 639.38	 68.00	 0.0	 0.0	 3	    1.00000	    0.00000	 230.0	 3	    1.05000	    0.95000;
	319	 1	 347.53	 37.00	 0.0	 0.0	 3	    1.00000	    0.00000	 230.0	 3	    1.05000	    0.95000;
	320	 1	 245.77	 26.00	 0.0	 0.0	 3	    1.00000	    0.00000	 230.0	 3	    1.05000	    0.95000;
	321	 2	 0.0	 0.0	 0.0	 0.0	 3	    1.00000	    0.00000	 230.0	 3	    1.05000	    0.95000;
	322	 2	 0.0	 0.0	 0.0	 0.0	 3	    1.00000	    0.00000	 230.0	 3	    1.05000	    0.95000;
	323	 2	 0.0	 0.0	 0.0	 0.0	 3	    1.00000	    0.00000	 230.0	 3	    1.05000	    0.95000;
	324	 1	 0.0	 0.0	 0.0	 0.0	 3	    1.00000	    0.00000	 230.0	 3	    1.05000	    0.95000;
	325	 1	 0.0	 0.0	 0.0	 0.0	 3	    1.00000	    0.00000	 230.0	 3	    1.05000	    0.95000;
];

%% generator data
%	bus	Pg	Qg	Qmax	Qmin	Vg	mBase	status	Pmax	Pmin
mpc.gen = [
	101	 46.5	 0.0	 43.0	 -43.0	 1.0	 100.0	 1	 85	 8.0; % COW
	101	 52.5	 0.0	 49.0	 -49.0	 1.0	 100.0	 1	 97	 8.0; % PEL
	101	 102.3	 0.0	 99.0	 -99.0	 1.0	 100.0	 1	 197	 7.6; % COW
	101	 63.3	 0.0	 60.0	 -60.0	 1.0	 100.0	 1	 119	 7.6; % PEL
	102	 146.0	 0.0	 142.0	 -142.0	 1.0	 100.0	 1	 284	 8.0; % PEL
	102	 95.5	 0.0	 92.0	 -92.0	 1.0	 100.0	 1	 183	 8.0; % PEL
	102	 83.3	 0.0	 80.0	 -80.0	 1.0	 100.0	 1	 159	 7.6; % PEL
	102	 112.8	 0.0	 109.0	 -109.0	 1.0	 100.0	 1	 218	 7.6; % NG
	107	 216.25	 0.0	 210.0	 -210.0	 1.0	 100.0	 1	 420	 12.5; % COW
	107	 137.75	 0.0	 132.0	 -132.0	 1.0	 100.0	 1	 263	 12.5; % NG
	107	 144.75	 0.0	 139.0	 -139.0	 1.0	 100.0	 1	 277	 12.5; % NG
	113	 247.75	 0.0	 231.0	 -231.0	 1.0	 100.0	 1	 461	 34.5; % NG
	113	 269.25	 0.0	 252.0	 -252.0	 1.0	 100.0	 1	 504	 34.5; % NG
	113	 1043.25	 0.0	 1026.0	 -1026.0	 1.0	 100.0	 1	 2052	 34.5; % COW
	114	 0.0	 0.0	 279.6	 -279.6	 1.0	 100.0	 1	 0	 0.0; % SYNC
	115	 83.1	 0.0	 102.0	 -102.0	 1.0	 100.0	 1	 165	 1.2; % NG
	115	 107.6	 0.0	 107.0	 -107.0	 1.0	 100.0	 1	 214	 1.2; % COW
	115	 198.1	 0.0	 198.0	 -198.0	 1.0	 100.0	 1	 395	 1.2; % COW
	115	 137.6	 0.0	 137.0	 -137.0	 1.0	 100.0	 1	 274	 1.2; % NG
	115	 76.1	 0.0	 102.0	 -102.0	 1.0	 100.0	 1	 151	 1.2; % NG
	115	 140.575	 0.0	 127.0	 -127.0	 1.0	 100.0	 1	 254	 27.15; % NG
	116	 404.575	 0.0	 391.0	 -391.0	 1.0	 100.0	 1	 782	 27.15; % NG
	118	 262.0	 0.0	 237.0	 -237.0	 1.0	 100.0	 1	 474	 50.0; % NG
	121	 149.0	 4.6	 200.0	 -190.8	 1.0	 100.0	 1	 248	 50.0; % NG
	122	 155.0	 0.0	 153.0	 -153.0	 1.0	 100.0	 1	 305	 5.0; % NG
	122	 78.5	 0.0	 76.0	 -76.0	 1.0	 100.0	 1	 152	 5.0; % COW
	122	 63.0	 0.0	 61.0	 -61.0	 1.0	 100.0	 1	 121	 5.0; % NG
	122	 61.5	 0.0	 59.0	 -59.0	 1.0	 100.0	 1	 118	 5.0; % NG
	122	 95.5	 0.0	 93.0	 -93.0	 1.0	 100.0	 1	 186	 5.0; % NG
	122	 65.0	 0.0	 63.0	 -63.0	 1.0	 100.0	 1	 125	 5.0; % NG
	123	 309.575	 0.0	 296.0	 -296.0	 1.0	 100.0	 1	 592	 27.15; % NG
	123	 171.575	 0.0	 158.0	 -158.0	 1.0	 100.0	 1	 316	 27.15; % NG
	123	 258.0	 0.0	 223.0	 -223.0	 1.0	 100.0	 1	 446	 70.0; % COW
	201	 61.0	 0.0	 57.0	 -57.0	 1.0	 100.0	 1	 114	 8.0; % NG
	201	 45.0	 0.0	 41.0	 -41.0	 1.0	 100.0	 1	 82	 8.0; % PEL
	201	 69.8	 0.0	 66.0	 -66.0	 1.0	 100.0	 1	 132	 7.6; % NG
	201	 75.3	 0.0	 72.0	 -72.0	 1.0	 100.0	 1	 143	 7.6; % NG
	202	 396.0	 0.0	 392.0	 -392.0	 1.0	 100.0	 1	 784	 8.0; % COW
	202	 120.5	 0.0	 117.0	 -117.0	 1.0	 100.0	 1	 233	 8.0; % PEL
	202	 105.3	 0.0	 102.0	 -102.0	 1.0	 100.0	 1	 203	 7.6; % NG
	202	 240.3	 0.0	 237.0	 -237.0	 1.0	 100.0	 1	 473	 7.6; % NG
	207	 93.25	 0.0	 87.0	 -87.0	 1.0	 100.0	 1	 174	 12.5; % NG
	207	 219.25	 0.0	 213.0	 -213.0	 1.0	 100.0	 1	 426	 12.5; % NG
	207	 72.25	 0.0	 66.0	 -66.0	 1.0	 100.0	 1	 132	 12.5; % NG
	213	 230.75	 0.0	 214.0	 -214.0	 1.0	 100.0	 1	 427	 34.5; % NG
	213	 241.25	 0.0	 224.0	 -224.0	 1.0	 100.0	 1	 448	 34.5; % NG
	213	 349.25	 0.0	 332.0	 -332.0	 1.0	 100.0	 1	 664	 34.5; % NG
	214	 0.0	 0.0	 278.4	 -278.4	 1.0	 100.0	 1	 0	 0.0; % SYNC
	215	 146.6	 0.0	 146.0	 -146.0	 1.0	 100.0	 1	 292	 1.2; % COW
	215	 185.1	 0.0	 185.0	 -185.0	 1.0	 100.0	 1	 369	 1.2; % NG
	215	 105.6	 0.0	 105.0	 -105.0	 1.0	 100.0	 1	 210	 1.2; % NG
	215	 211.1	 0.0	 211.0	 -211.0	 1.0	 100.0	 1	 421	 1.2; % COW
	215	 152.1	 0.0	 152.0	 -152.0	 1.0	 100.0	 1	 303	 1.2; % NG
	215	 108.075	 0.0	 95.0	 -95.0	 1.0	 100.0	 1	 189	 27.15; % NG
	216	 339.075	 0.0	 326.0	 -326.0	 1.0	 100.0	 1	 651	 27.15; % NG
	218	 193.0	 16.0	 200.0	 -168.0	 1.0	 100.0	 1	 336	 50.0; % NG
	221	 169.5	 27.5	 200.0	 -145.0	 1.0	 100.0	 1	 289	 50.0; % NG
	222	 99.5	 0.0	 97.0	 -97.0	 1.0	 100.0	 1	 194	 5.0; % NG
	222	 86.0	 0.0	 84.0	 -84.0	 1.0	 100.0	 1	 167	 5.0; % NG
	222	 124.0	 0.0	 122.0	 -122.0	 1.0	 100.0	 1	 243	 5.0; % NG
	222	 54.0	 0.0	 52.0	 -52.0	 1.0	 100.0	 1	 103	 5.0; % NG
	222	 90.0	 0.0	 88.0	 -88.0	 1.0	 100.0	 1	 175	 5.0; % NG
	222	 50.0	 0.0	 48.0	 -48.0	 1.0	 100.0	 1	 95	 5.0; % NG
	223	 142.075	 0.0	 129.0	 -129.0	 1.0	 100.0	 1	 257	 27.15; % NG
	223	 184.575	 0.0	 171.0	 -171.0	 1.0	 100.0	 1	 342	 27.15; % NG
	223	 311.5	 0.0	 277.0	 -277.0	 1.0	 100.0	 1	 553	 70.0; % NG
	301	 122.5	 0.0	 119.0	 -119.0	 1.0	 100.0	 1	 237	 8.0; % NG
	301	 73.0	 0.0	 69.0	 -69.0	 1.0	 100.0	 1	 138	 8.0; % PEL
	301	 105.3	 0.0	 102.0	 -102.0	 1.0	 100.0	 1	 203	 7.6; % PEL
	301	 73.8	 0.0	 70.0	 -70.0	 1.0	 100.0	 1	 140	 7.6; % NG
	302	 152.0	 0.0	 148.0	 -148.0	 1.0	 100.0	 1	 296	 8.0; % NG
	302	 95.0	 0.0	 91.0	 -91.0	 1.0	 100.0	 1	 182	 8.0; % PEL
	302	 86.8	 0.0	 83.0	 -83.0	 1.0	 100.0	 1	 166	 7.6; % PEL
	302	 93.3	 0.0	 90.0	 -90.0	 1.0	 100.0	 1	 179	 7.6; % NG
	307	 79.75	 0.0	 74.0	 -74.0	 1.0	 100.0	 1	 147	 12.5; % COW
	307	 147.75	 0.0	 142.0	 -142.0	 1.0	 100.0	 1	 283	 12.5; % NG
	307	 116.25	 0.0	 110.0	 -110.0	 1.0	 100.0	 1	 220	 12.5; % COW
	313	 273.75	 0.0	 257.0	 -257.0	 1.0	 100.0	 1	 513	 34.5; % NG
	313	 277.75	 0.0	 261.0	 -261.0	 1.0	 100.0	 1	 521	 34.5; % NG
	313	 322.25	 0.0	 305.0	 -305.0	 1.0	 100.0	 1	 610	 34.5; % NG
	314	 0.0	 0.0	 284.4	 -284.4	 1.0	 100.0	 1	 0	 0.0; % SYNC
	315	 202.6	 0.0	 202.0	 -202.0	 1.0	 100.0	 1	 404	 1.2; % COW
	315	 101.6	 0.0	 102.0	 -102.0	 1.0	 100.0	 1	 202	 1.2; % COW
	315	 148.1	 0.0	 148.0	 -148.0	 1.0	 100.0	 1	 295	 1.2; % NG
	315	 190.1	 0.0	 190.0	 -190.0	 1.0	 100.0	 1	 379	 1.2; % NG
	315	 55.1	 0.0	 102.0	 -102.0	 1.0	 100.0	 1	 109	 1.2; % NG
	315	 112.575	 0.0	 102.0	 -102.0	 1.0	 100.0	 1	 198	 27.15; % NG
	316	 372.075	 0.0	 359.0	 -359.0	 1.0	 100.0	 1	 717	 27.15; % NG
	318	 317.5	 0.0	 293.0	 -293.0	 1.0	 100.0	 1	 585	 50.0; % COW
	321	 165.5	 23.2	 200.0	 -153.6	 1.0	 100.0	 1	 281	 50.0; % COW
	322	 48.0	 0.0	 46.0	 -46.0	 1.0	 100.0	 1	 91	 5.0; % PEL
	322	 83.5	 0.0	 81.0	 -81.0	 1.0	 100.0	 1	 162	 5.0; % NG
	322	 64.0	 0.0	 62.0	 -62.0	 1.0	 100.0	 1	 123	 5.0; % NG
	322	 36.0	 0.0	 34.0	 -34.0	 1.0	 100.0	 1	 67	 5.0; % NG
	322	 64.0	 0.0	 62.0	 -62.0	 1.0	 100.0	 1	 123	 5.0; % NG
	322	 88.0	 0.0	 86.0	 -86.0	 1.0	 100.0	 1	 171	 5.0; % NG
	323	 155.075	 0.0	 142.0	 -142.0	 1.0	 100.0	 1	 283	 27.15; % NG
	323	 192.575	 0.0	 179.0	 -179.0	 1.0	 100.0	 1	 358	 27.15; % NG
	323	 202.5	 0.0	 168.0	 -168.0	 1.0	 100.0	 1	 335	 70.0; % NG
];

%% generator cost data
%	2	startup	shutdown	n	c(n-1)	...	c0
mpc.gencost = [
	2	 1500.0	 0.0	 3	   0.000000	 130.000000	 400.684900; % COW
	2	 1500.0	 0.0	 3	   0.000000	 130.000000	 400.684900; % PEL
	2	 1500.0	 0.0	 3	   0.014142	  16.081100	 212.307600; % COW
	2	 1500.0	 0.0	 3	   0.014142	  16.081100	 212.307600; % PEL
	2	 1500.0	 0.0	 3	   0.000000	 130.000000	 400.684900; % PEL
	2	 1500.0	 0.0	 3	   0.000000	 130.000000	 400.684900; % PEL
	2	 1500.0	 0.0	 3	   0.014142	  16.081100	 212.307600; % PEL
	2	 1500.0	 0.0	 3	   0.014142	  16.081100	 212.307600; % NG
	2	 1500.0	 0.0	 3	   0.052672	  43.661500	 781.521000; % COW
	2	 1500.0	 0.0	 3	   0.052672	  43.661500	 781.521000; % NG
	2	 1500.0	 0.0	 3	   0.052672	  43.661500	 781.521000; % NG
	2	 1500.0	 0.0	 3	   0.007170	  48.580400	 832.757500; % NG
	2	 1500.0	 0.0	 3	   0.007170	  48.580400	 832.757500; % NG
	2	 1500.0	 0.0	 3	   0.007170	  48.580400	 832.757500; % COW
	2	 1500.0	 0.0	 3	   0.000000	   0.000000	   0.000000; % SYNC
	2	 1500.0	 0.0	 3	   0.328412	  56.564000	  86.385200; % NG
	2	 1500.0	 0.0	 3	   0.328412	  56.564000	  86.385200; % COW
	2	 1500.0	 0.0	 3	   0.328412	  56.564000	  86.385200; % COW
	2	 1500.0	 0.0	 3	   0.328412	  56.564000	  86.385200; % NG
	2	 1500.0	 0.0	 3	   0.328412	  56.564000	  86.385200; % NG
	2	 1500.0	 0.0	 3	   0.008342	  12.388300	 382.239100; % NG
	2	 1500.0	 0.0	 3	   0.008342	  12.388300	 382.239100; % NG
	2	 1500.0	 0.0	 3	   0.000213	   4.423100	 395.374900; % NG
	2	 1500.0	 0.0	 3	   0.000213	   4.423100	 395.374900; % NG
	2	 1500.0	 0.0	 3	   0.000000	   0.001000	   0.001000; % NG
	2	 1500.0	 0.0	 3	   0.000000	   0.001000	   0.001000; % COW
	2	 1500.0	 0.0	 3	   0.000000	   0.001000	   0.001000; % NG
	2	 1500.0	 0.0	 3	   0.000000	   0.001000	   0.001000; % NG
	2	 1500.0	 0.0	 3	   0.000000	   0.001000	   0.001000; % NG
	2	 1500.0	 0.0	 3	   0.000000	   0.001000	   0.001000; % NG
	2	 1500.0	 0.0	 3	   0.008342	  12.388300	 382.239100; % NG
	2	 1500.0	 0.0	 3	   0.008342	  12.388300	 382.239100; % NG
	2	 1500.0	 0.0	 3	   0.004895	  11.849500	 665.109400; % COW
	2	 1500.0	 0.0	 3	   0.000000	 130.000000	 400.684900; % NG
	2	 1500.0	 0.0	 3	   0.000000	 130.000000	 400.684900; % PEL
	2	 1500.0	 0.0	 3	   0.014142	  16.081100	 212.307600; % NG
	2	 1500.0	 0.0	 3	   0.014142	  16.081100	 212.307600; % NG
	2	 1500.0	 0.0	 3	   0.000000	 130.000000	 400.684900; % COW
	2	 1500.0	 0.0	 3	   0.000000	 130.000000	 400.684900; % PEL
	2	 1500.0	 0.0	 3	   0.014142	  16.081100	 212.307600; % NG
	2	 1500.0	 0.0	 3	   0.014142	  16.081100	 212.307600; % NG
	2	 1500.0	 0.0	 3	   0.052672	  43.661500	 781.521000; % NG
	2	 1500.0	 0.0	 3	   0.052672	  43.661500	 781.521000; % NG
	2	 1500.0	 0.0	 3	   0.052672	  43.661500	 781.521000; % NG
	2	 1500.0	 0.0	 3	   0.007170	  48.580400	 832.757500; % NG
	2	 1500.0	 0.0	 3	   0.007170	  48.580400	 832.757500; % NG
	2	 1500.0	 0.0	 3	   0.007170	  48.580400	 832.757500; % NG
	2	 1500.0	 0.0	 3	   0.000000	   0.000000	   0.000000; % SYNC
	2	 1500.0	 0.0	 3	   0.328412	  56.564000	  86.385200; % COW
	2	 1500.0	 0.0	 3	   0.328412	  56.564000	  86.385200; % NG
	2	 1500.0	 0.0	 3	   0.328412	  56.564000	  86.385200; % NG
	2	 1500.0	 0.0	 3	   0.328412	  56.564000	  86.385200; % COW
	2	 1500.0	 0.0	 3	   0.328412	  56.564000	  86.385200; % NG
	2	 1500.0	 0.0	 3	   0.008342	  12.388300	 382.239100; % NG
	2	 1500.0	 0.0	 3	   0.008342	  12.388300	 382.239100; % NG
	2	 1500.0	 0.0	 3	   0.000213	   4.423100	 395.374900; % NG
	2	 1500.0	 0.0	 3	   0.000213	   4.423100	 395.374900; % NG
	2	 1500.0	 0.0	 3	   0.000000	   0.001000	   0.001000; % NG
	2	 1500.0	 0.0	 3	   0.000000	   0.001000	   0.001000; % NG
	2	 1500.0	 0.0	 3	   0.000000	   0.001000	   0.001000; % NG
	2	 1500.0	 0.0	 3	   0.000000	   0.001000	   0.001000; % NG
	2	 1500.0	 0.0	 3	   0.000000	   0.001000	   0.001000; % NG
	2	 1500.0	 0.0	 3	   0.000000	   0.001000	   0.001000; % NG
	2	 1500.0	 0.0	 3	   0.008342	  12.388300	 382.239100; % NG
	2	 1500.0	 0.0	 3	   0.008342	  12.388300	 382.239100; % NG
	2	 1500.0	 0.0	 3	   0.004895	  11.849500	 665.109400; % NG
	2	 1500.0	 0.0	 3	   0.000000	 130.000000	 400.684900; % NG
	2	 1500.0	 0.0	 3	   0.000000	 130.000000	 400.684900; % PEL
	2	 1500.0	 0.0	 3	   0.014142	  16.081100	 212.307600; % PEL
	2	 1500.0	 0.0	 3	   0.014142	  16.081100	 212.307600; % NG
	2	 1500.0	 0.0	 3	   0.000000	 130.000000	 400.684900; % NG
	2	 1500.0	 0.0	 3	   0.000000	 130.000000	 400.684900; % PEL
	2	 1500.0	 0.0	 3	   0.014142	  16.081100	 212.307600; % PEL
	2	 1500.0	 0.0	 3	   0.014142	  16.081100	 212.307600; % NG
	2	 1500.0	 0.0	 3	   0.052672	  43.661500	 781.521000; % COW
	2	 1500.0	 0.0	 3	   0.052672	  43.661500	 781.521000; % NG
	2	 1500.0	 0.0	 3	   0.052672	  43.661500	 781.521000; % COW
	2	 1500.0	 0.0	 3	   0.007170	  48.580400	 832.757500; % NG
	2	 1500.0	 0.0	 3	   0.007170	  48.580400	 832.757500; % NG
	2	 1500.0	 0.0	 3	   0.007170	  48.580400	 832.757500; % NG
	2	 1500.0	 0.0	 3	   0.000000	   0.000000	   0.000000; % SYNC
	2	 1500.0	 0.0	 3	   0.328412	  56.564000	  86.385200; % COW
	2	 1500.0	 0.0	 3	   0.328412	  56.564000	  86.385200; % COW
	2	 1500.0	 0.0	 3	   0.328412	  56.564000	  86.385200; % NG
	2	 1500.0	 0.0	 3	   0.328412	  56.564000	  86.385200; % NG
	2	 1500.0	 0.0	 3	   0.328412	  56.564000	  86.385200; % NG
	2	 1500.0	 0.0	 3	   0.008342	  12.388300	 382.239100; % NG
	2	 1500.0	 0.0	 3	   0.008342	  12.388300	 382.239100; % NG
	2	 1500.0	 0.0	 3	   0.000213	   4.423100	 395.374900; % COW
	2	 1500.0	 0.0	 3	   0.000213	   4.423100	 395.374900; % COW
	2	 1500.0	 0.0	 3	   0.000000	   0.001000	   0.001000; % PEL
	2	 1500.0	 0.0	 3	   0.000000	   0.001000	   0.001000; % NG
	2	 1500.0	 0.0	 3	   0.000000	   0.001000	   0.001000; % NG
	2	 1500.0	 0.0	 3	   0.000000	   0.001000	   0.001000; % NG
	2	 1500.0	 0.0	 3	   0.000000	   0.001000	   0.001000; % NG
	2	 1500.0	 0.0	 3	   0.000000	   0.001000	   0.001000; % NG
	2	 1500.0	 0.0	 3	   0.008342	  12.388300	 382.239100; % NG
	2	 1500.0	 0.0	 3	   0.008342	  12.388300	 382.239100; % NG
	2	 1500.0	 0.0	 3	   0.004895	  11.849500	 665.109400; % NG
];

%% branch data
%	fbus	tbus	r	x	b	rateA	rateB	rateC	ratio	angle	status	angmin	angmax
mpc.branch = [
	101	 102	 0.003	 0.014	 0.461	 175.0	 193.0	 200.0	 0.0	 0.0	 1	 -30.0	 30.0;
	101	 103	 0.055	 0.211	 0.057	 175.0	 208.0	 220.0	 0.0	 0.0	 1	 -30.0	 30.0;
	101	 105	 0.022	 0.085	 0.023	 175.0	 208.0	 220.0	 0.0	 0.0	 1	 -30.0	 30.0;
	102	 104	 0.033	 0.127	 0.034	 175.0	 208.0	 220.0	 0.0	 0.0	 1	 -30.0	 30.0;
	102	 106	 0.05	 0.192	 0.052	 175.0	 208.0	 220.0	 0.0	 0.0	 1	 -30.0	 30.0;
	103	 109	 0.031	 0.119	 0.032	 175.0	 208.0	 220.0	 0.0	 0.0	 1	 -30.0	 30.0;
	103	 124	 0.002	 0.084	 0.0	 400.0	 510.0	 600.0	 1.015	 0.0	 1	 -30.0	 30.0;
	104	 109	 0.027	 0.104	 0.028	 175.0	 208.0	 220.0	 0.0	 0.0	 1	 -30.0	 30.0;
	105	 110	 0.023	 0.088	 0.024	 175.0	 208.0	 220.0	 0.0	 0.0	 1	 -30.0	 30.0;
	106	 110	 0.014	 0.061	 2.459	 175.0	 193.0	 200.0	 0.0	 0.0	 1	 -30.0	 30.0;
	107	 108	 0.016	 0.061	 0.017	 175.0	 208.0	 220.0	 0.0	 0.0	 1	 -30.0	 30.0;
	107	 203	 0.042	 0.161	 0.044	 175.0	 208.0	 220.0	 0.0	 0.0	 1	 -30.0	 30.0;
	108	 109	 0.043	 0.165	 0.045	 175.0	 208.0	 220.0	 0.0	 0.0	 1	 -30.0	 30.0;
	108	 110	 0.043	 0.165	 0.045	 175.0	 208.0	 220.0	 0.0	 0.0	 1	 -30.0	 30.0;
	109	 111	 0.002	 0.084	 0.0	 400.0	 510.0	 600.0	 1.03	 0.0	 1	 -30.0	 30.0;
	109	 112	 0.002	 0.084	 0.0	 400.0	 510.0	 600.0	 1.03	 0.0	 1	 -30.0	 30.0;
	110	 111	 0.002	 0.084	 0.0	 400.0	 510.0	 600.0	 1.015	 0.0	 1	 -30.0	 30.0;
	110	 112	 0.002	 0.084	 0.0	 400.0	 510.0	 600.0	 1.015	 0.0	 1	 -30.0	 30.0;
	111	 113	 0.006	 0.048	 0.1	 500.0	 600.0	 625.0	 0.0	 0.0	 1	 -30.0	 30.0;
	111	 114	 0.005	 0.042	 0.088	 500.0	 600.0	 625.0	 0.0	 0.0	 1	 -30.0	 30.0;
	112	 113	 0.006	 0.048	 0.1	 500.0	 600.0	 625.0	 0.0	 0.0	 1	 -30.0	 30.0;
	112	 123	 0.012	 0.097	 0.203	 500.0	 600.0	 625.0	 0.0	 0.0	 1	 -30.0	 30.0;
	113	 123	 0.011	 0.087	 0.182	 500.0	 600.0	 625.0	 0.0	 0.0	 1	 -30.0	 30.0;
	113	 215	 0.01	 0.075	 0.158	 500.0	 600.0	 625.0	 0.0	 0.0	 1	 -30.0	 30.0;
	114	 116	 0.005	 0.059	 0.082	 500.0	 600.0	 625.0	 0.0	 0.0	 1	 -30.0	 30.0;
	115	 116	 0.002	 0.017	 0.036	 500.0	 600.0	 625.0	 0.0	 0.0	 1	 -30.0	 30.0;
	115	 121	 0.006	 0.049	 0.103	 500.0	 600.0	 625.0	 0.0	 0.0	 1	 -30.0	 30.0;
	115	 121	 0.006	 0.049	 0.103	 500.0	 600.0	 625.0	 0.0	 0.0	 1	 -30.0	 30.0;
	115	 124	 0.007	 0.052	 0.109	 500.0	 600.0	 625.0	 0.0	 0.0	 1	 -30.0	 30.0;
	116	 117	 0.003	 0.026	 0.055	 500.0	 600.0	 625.0	 0.0	 0.0	 1	 -30.0	 30.0;
	116	 119	 0.003	 0.023	 0.049	 500.0	 600.0	 625.0	 0.0	 0.0	 1	 -30.0	 30.0;
	117	 118	 0.002	 0.014	 0.03	 500.0	 600.0	 625.0	 0.0	 0.0	 1	 -30.0	 30.0;
	117	 122	 0.014	 0.105	 0.221	 500.0	 600.0	 625.0	 0.0	 0.0	 1	 -30.0	 30.0;
	118	 121	 0.003	 0.026	 0.055	 500.0	 600.0	 625.0	 0.0	 0.0	 1	 -30.0	 30.0;
	118	 121	 0.003	 0.026	 0.055	 500.0	 600.0	 625.0	 0.0	 0.0	 1	 -30.0	 30.0;
	119	 120	 0.005	 0.04	 0.083	 500.0	 600.0	 625.0	 0.0	 0.0	 1	 -30.0	 30.0;
	119	 120	 0.005	 0.04	 0.083	 500.0	 600.0	 625.0	 0.0	 0.0	 1	 -30.0	 30.0;
	120	 123	 0.003	 0.022	 0.046	 500.0	 600.0	 625.0	 0.0	 0.0	 1	 -30.0	 30.0;
	120	 123	 0.003	 0.022	 0.046	 500.0	 600.0	 625.0	 0.0	 0.0	 1	 -30.0	 30.0;
	121	 122	 0.009	 0.068	 0.142	 500.0	 600.0	 625.0	 0.0	 0.0	 1	 -30.0	 30.0;
	123	 217	 0.01	 0.074	 0.155	 500.0	 600.0	 625.0	 0.0	 0.0	 1	 -30.0	 30.0;
	201	 202	 0.003	 0.014	 0.461	 175.0	 193.0	 200.0	 0.0	 0.0	 1	 -30.0	 30.0;
	201	 203	 0.055	 0.211	 0.057	 175.0	 208.0	 220.0	 0.0	 0.0	 1	 -30.0	 30.0;
	201	 205	 0.022	 0.085	 0.023	 175.0	 208.0	 220.0	 0.0	 0.0	 1	 -30.0	 30.0;
	202	 204	 0.033	 0.127	 0.034	 175.0	 208.0	 220.0	 0.0	 0.0	 1	 -30.0	 30.0;
	202	 206	 0.05	 0.192	 0.052	 175.0	 208.0	 220.0	 0.0	 0.0	 1	 -30.0	 30.0;
	203	 209	 0.031	 0.119	 0.032	 175.0	 208.0	 220.0	 0.0	 0.0	 1	 -30.0	 30.0;
	203	 224	 0.002	 0.084	 0.0	 400.0	 510.0	 600.0	 1.015	 0.0	 1	 -30.0	 30.0;
	204	 209	 0.027	 0.104	 0.028	 175.0	 208.0	 220.0	 0.0	 0.0	 1	 -30.0	 30.0;
	205	 210	 0.023	 0.088	 0.024	 175.0	 208.0	 220.0	 0.0	 0.0	 1	 -30.0	 30.0;
	206	 210	 0.014	 0.061	 2.459	 175.0	 193.0	 200.0	 0.0	 0.0	 1	 -30.0	 30.0;
	207	 208	 0.016	 0.061	 0.017	 175.0	 208.0	 220.0	 0.0	 0.0	 1	 -30.0	 30.0;
	208	 209	 0.043	 0.165	 0.045	 175.0	 208.0	 220.0	 0.0	 0.0	 1	 -30.0	 30.0;
	208	 210	 0.043	 0.165	 0.045	 175.0	 208.0	 220.0	 0.0	 0.0	 1	 -30.0	 30.0;
	209	 211	 0.002	 0.084	 0.0	 400.0	 510.0	 600.0	 1.03	 0.0	 1	 -30.0	 30.0;
	209	 212	 0.002	 0.084	 0.0	 400.0	 510.0	 600.0	 1.03	 0.0	 1	 -30.0	 30.0;
	210	 211	 0.002	 0.084	 0.0	 400.0	 510.0	 600.0	 1.015	 0.0	 1	 -30.0	 30.0;
	210	 212	 0.002	 0.084	 0.0	 400.0	 510.0	 600.0	 1.015	 0.0	 1	 -30.0	 30.0;
	211	 213	 0.006	 0.048	 0.1	 500.0	 600.0	 625.0	 0.0	 0.0	 1	 -30.0	 30.0;
	211	 214	 0.005	 0.042	 0.088	 500.0	 600.0	 625.0	 0.0	 0.0	 1	 -30.0	 30.0;
	212	 213	 0.006	 0.048	 0.1	 500.0	 600.0	 625.0	 0.0	 0.0	 1	 -30.0	 30.0;
	212	 223	 0.012	 0.097	 0.203	 500.0	 600.0	 625.0	 0.0	 0.0	 1	 -30.0	 30.0;
	213	 223	 0.011	 0.087	 0.182	 500.0	 600.0	 625.0	 0.0	 0.0	 1	 -30.0	 30.0;
	214	 216	 0.005	 0.059	 0.082	 500.0	 600.0	 625.0	 0.0	 0.0	 1	 -30.0	 30.0;
	215	 216	 0.002	 0.017	 0.036	 500.0	 600.0	 625.0	 0.0	 0.0	 1	 -30.0	 30.0;
	215	 221	 0.006	 0.049	 0.103	 500.0	 600.0	 625.0	 0.0	 0.0	 1	 -30.0	 30.0;
	215	 221	 0.006	 0.049	 0.103	 500.0	 600.0	 625.0	 0.0	 0.0	 1	 -30.0	 30.0;
	215	 224	 0.007	 0.052	 0.109	 500.0	 600.0	 625.0	 0.0	 0.0	 1	 -30.0	 30.0;
	216	 217	 0.003	 0.026	 0.055	 500.0	 600.0	 625.0	 0.0	 0.0	 1	 -30.0	 30.0;
	216	 219	 0.003	 0.023	 0.049	 500.0	 600.0	 625.0	 0.0	 0.0	 1	 -30.0	 30.0;
	217	 218	 0.002	 0.014	 0.03	 500.0	 600.0	 625.0	 0.0	 0.0	 1	 -30.0	 30.0;
	217	 222	 0.014	 0.105	 0.221	 500.0	 600.0	 625.0	 0.0	 0.0	 1	 -30.0	 30.0;
	218	 221	 0.003	 0.026	 0.055	 500.0	 600.0	 625.0	 0.0	 0.0	 1	 -30.0	 30.0;
	218	 221	 0.003	 0.026	 0.055	 500.0	 600.0	 625.0	 0.0	 0.0	 1	 -30.0	 30.0;
	219	 220	 0.005	 0.04	 0.083	 500.0	 600.0	 625.0	 0.0	 0.0	 1	 -30.0	 30.0;
	219	 220	 0.005	 0.04	 0.083	 500.0	 600.0	 625.0	 0.0	 0.0	 1	 -30.0	 30.0;
	220	 223	 0.003	 0.022	 0.046	 500.0	 600.0	 625.0	 0.0	 0.0	 1	 -30.0	 30.0;
	220	 223	 0.003	 0.022	 0.046	 500.0	 600.0	 625.0	 0.0	 0.0	 1	 -30.0	 30.0;
	221	 222	 0.009	 0.068	 0.142	 500.0	 600.0	 625.0	 0.0	 0.0	 1	 -30.0	 30.0;
	301	 302	 0.003	 0.014	 0.461	 175.0	 193.0	 200.0	 0.0	 0.0	 1	 -30.0	 30.0;
	301	 303	 0.055	 0.211	 0.057	 175.0	 208.0	 220.0	 0.0	 0.0	 1	 -30.0	 30.0;
	301	 305	 0.022	 0.085	 0.023	 175.0	 208.0	 220.0	 0.0	 0.0	 1	 -30.0	 30.0;
	302	 304	 0.033	 0.127	 0.034	 175.0	 208.0	 220.0	 0.0	 0.0	 1	 -30.0	 30.0;
	302	 306	 0.05	 0.192	 0.052	 175.0	 208.0	 220.0	 0.0	 0.0	 1	 -30.0	 30.0;
	303	 309	 0.031	 0.119	 0.032	 175.0	 208.0	 220.0	 0.0	 0.0	 1	 -30.0	 30.0;
	303	 324	 0.002	 0.084	 0.0	 400.0	 510.0	 600.0	 1.015	 0.0	 1	 -30.0	 30.0;
	304	 309	 0.027	 0.104	 0.028	 175.0	 208.0	 220.0	 0.0	 0.0	 1	 -30.0	 30.0;
	305	 310	 0.023	 0.088	 0.024	 175.0	 208.0	 220.0	 0.0	 0.0	 1	 -30.0	 30.0;
	306	 310	 0.014	 0.061	 2.459	 175.0	 193.0	 200.0	 0.0	 0.0	 1	 -30.0	 30.0;
	307	 308	 0.016	 0.061	 0.017	 175.0	 208.0	 220.0	 0.0	 0.0	 1	 -30.0	 30.0;
	308	 309	 0.043	 0.165	 0.045	 175.0	 208.0	 220.0	 0.0	 0.0	 1	 -30.0	 30.0;
	308	 310	 0.043	 0.165	 0.045	 175.0	 208.0	 220.0	 0.0	 0.0	 1	 -30.0	 30.0;
	309	 311	 0.002	 0.084	 0.0	 400.0	 510.0	 600.0	 1.03	 0.0	 1	 -30.0	 30.0;
	309	 312	 0.002	 0.084	 0.0	 400.0	 510.0	 600.0	 1.03	 0.0	 1	 -30.0	 30.0;
	310	 311	 0.002	 0.084	 0.0	 400.0	 510.0	 600.0	 1.015	 0.0	 1	 -30.0	 30.0;
	310	 312	 0.002	 0.084	 0.0	 400.0	 510.0	 600.0	 1.015	 0.0	 1	 -30.0	 30.0;
	311	 313	 0.006	 0.048	 0.1	 500.0	 600.0	 625.0	 0.0	 0.0	 1	 -30.0	 30.0;
	311	 314	 0.005	 0.042	 0.088	 500.0	 600.0	 625.0	 0.0	 0.0	 1	 -30.0	 30.0;
	312	 313	 0.006	 0.048	 0.1	 500.0	 600.0	 625.0	 0.0	 0.0	 1	 -30.0	 30.0;
	312	 323	 0.012	 0.097	 0.203	 500.0	 600.0	 625.0	 0.0	 0.0	 1	 -30.0	 30.0;
	313	 323	 0.011	 0.087	 0.182	 500.0	 600.0	 625.0	 0.0	 0.0	 1	 -30.0	 30.0;
	314	 316	 0.005	 0.059	 0.082	 500.0	 600.0	 625.0	 0.0	 0.0	 1	 -30.0	 30.0;
	315	 316	 0.002	 0.017	 0.036	 500.0	 600.0	 625.0	 0.0	 0.0	 1	 -30.0	 30.0;
	315	 321	 0.006	 0.049	 0.103	 500.0	 600.0	 625.0	 0.0	 0.0	 1	 -30.0	 30.0;
	315	 321	 0.006	 0.049	 0.103	 500.0	 600.0	 625.0	 0.0	 0.0	 1	 -30.0	 30.0;
	315	 324	 0.007	 0.052	 0.109	 500.0	 600.0	 625.0	 0.0	 0.0	 1	 -30.0	 30.0;
	316	 317	 0.003	 0.026	 0.055	 500.0	 600.0	 625.0	 0.0	 0.0	 1	 -30.0	 30.0;
	316	 319	 0.003	 0.023	 0.049	 500.0	 600.0	 625.0	 0.0	 0.0	 1	 -30.0	 30.0;
	317	 318	 0.002	 0.014	 0.03	 500.0	 600.0	 625.0	 0.0	 0.0	 1	 -30.0	 30.0;
	317	 322	 0.014	 0.105	 0.221	 500.0	 600.0	 625.0	 0.0	 0.0	 1	 -30.0	 30.0;
	318	 321	 0.003	 0.026	 0.055	 500.0	 600.0	 625.0	 0.0	 0.0	 1	 -30.0	 30.0;
	318	 321	 0.003	 0.026	 0.055	 500.0	 600.0	 625.0	 0.0	 0.0	 1	 -30.0	 30.0;
	319	 320	 0.005	 0.04	 0.083	 500.0	 600.0	 625.0	 0.0	 0.0	 1	 -30.0	 30.0;
	319	 320	 0.005	 0.04	 0.083	 500.0	 600.0	 625.0	 0.0	 0.0	 1	 -30.0	 30.0;
	320	 323	 0.003	 0.022	 0.046	 500.0	 600.0	 625.0	 0.0	 0.0	 1	 -30.0	 30.0;
	320	 323	 0.003	 0.022	 0.046	 500.0	 600.0	 625.0	 0.0	 0.0	 1	 -30.0	 30.0;
	321	 322	 0.009	 0.068	 0.142	 500.0	 600.0	 625.0	 0.0	 0.0	 1	 -30.0	 30.0;
	325	 121	 0.012	 0.097	 0.203	 500.0	 600.0	 625.0	 0.0	 0.0	 1	 -30.0	 30.0;
	318	 223	 0.013	 0.104	 0.218	 500.0	 600.0	 625.0	 0.0	 0.0	 1	 -30.0	 30.0;
	323	 325	 0.0	 0.009	 0.0	 722.0	 893.0	 893.0	 0.0	 0.0	 1	 -30.0	 30.0;
];

% INFO    : === Translation Options ===
% INFO    : Load Model:                  from file ./pglib_opf_case73_ieee_rts.m.api.sol
% INFO    : Gen Active Capacity Model:   stat
% INFO    : Gen Reactive Capacity Model: al50ag
% INFO    : Gen Active Cost Model:       stat
% INFO    : 
% INFO    : === Load Replacement Notes ===
% INFO    : Bus 101	: Pd=108.0, Qd=22.0 -> Pd=207.37, Qd=22.00
% INFO    : Bus 102	: Pd=97.0, Qd=20.0 -> Pd=186.24, Qd=20.00
% INFO    : Bus 103	: Pd=180.0, Qd=37.0 -> Pd=345.61, Qd=37.00
% INFO    : Bus 104	: Pd=74.0, Qd=15.0 -> Pd=142.08, Qd=15.00
% INFO    : Bus 105	: Pd=71.0, Qd=14.0 -> Pd=136.32, Qd=14.00
% INFO    : Bus 106	: Pd=136.0, Qd=28.0 -> Pd=261.13, Qd=28.00
% INFO    : Bus 107	: Pd=125.0, Qd=25.0 -> Pd=240.01, Qd=25.00
% INFO    : Bus 108	: Pd=171.0, Qd=35.0 -> Pd=328.33, Qd=35.00
% INFO    : Bus 109	: Pd=175.0, Qd=36.0 -> Pd=336.01, Qd=36.00
% INFO    : Bus 110	: Pd=195.0, Qd=40.0 -> Pd=374.41, Qd=40.00
% INFO    : Bus 113	: Pd=265.0, Qd=54.0 -> Pd=508.81, Qd=54.00
% INFO    : Bus 114	: Pd=194.0, Qd=39.0 -> Pd=372.49, Qd=39.00
% INFO    : Bus 115	: Pd=317.0, Qd=64.0 -> Pd=608.66, Qd=64.00
% INFO    : Bus 116	: Pd=100.0, Qd=20.0 -> Pd=192.00, Qd=20.00
% INFO    : Bus 118	: Pd=333.0, Qd=68.0 -> Pd=639.38, Qd=68.00
% INFO    : Bus 119	: Pd=181.0, Qd=37.0 -> Pd=347.53, Qd=37.00
% INFO    : Bus 120	: Pd=128.0, Qd=26.0 -> Pd=245.77, Qd=26.00
% INFO    : Bus 201	: Pd=108.0, Qd=22.0 -> Pd=207.37, Qd=22.00
% INFO    : Bus 202	: Pd=97.0, Qd=20.0 -> Pd=186.24, Qd=20.00
% INFO    : Bus 203	: Pd=180.0, Qd=37.0 -> Pd=345.61, Qd=37.00
% INFO    : Bus 204	: Pd=74.0, Qd=15.0 -> Pd=142.08, Qd=15.00
% INFO    : Bus 205	: Pd=71.0, Qd=14.0 -> Pd=136.32, Qd=14.00
% INFO    : Bus 206	: Pd=136.0, Qd=28.0 -> Pd=261.13, Qd=28.00
% INFO    : Bus 207	: Pd=125.0, Qd=25.0 -> Pd=240.01, Qd=25.00
% INFO    : Bus 208	: Pd=171.0, Qd=35.0 -> Pd=328.33, Qd=35.00
% INFO    : Bus 209	: Pd=175.0, Qd=36.0 -> Pd=336.01, Qd=36.00
% INFO    : Bus 210	: Pd=195.0, Qd=40.0 -> Pd=374.41, Qd=40.00
% INFO    : Bus 213	: Pd=265.0, Qd=54.0 -> Pd=508.81, Qd=54.00
% INFO    : Bus 214	: Pd=194.0, Qd=39.0 -> Pd=372.49, Qd=39.00
% INFO    : Bus 215	: Pd=317.0, Qd=64.0 -> Pd=608.66, Qd=64.00
% INFO    : Bus 216	: Pd=100.0, Qd=20.0 -> Pd=192.00, Qd=20.00
% INFO    : Bus 218	: Pd=333.0, Qd=68.0 -> Pd=639.38, Qd=68.00
% INFO    : Bus 219	: Pd=181.0, Qd=37.0 -> Pd=347.53, Qd=37.00
% INFO    : Bus 220	: Pd=128.0, Qd=26.0 -> Pd=245.77, Qd=26.00
% INFO    : Bus 301	: Pd=108.0, Qd=22.0 -> Pd=207.37, Qd=22.00
% INFO    : Bus 302	: Pd=97.0, Qd=20.0 -> Pd=186.24, Qd=20.00
% INFO    : Bus 303	: Pd=180.0, Qd=37.0 -> Pd=345.61, Qd=37.00
% INFO    : Bus 304	: Pd=74.0, Qd=15.0 -> Pd=142.08, Qd=15.00
% INFO    : Bus 305	: Pd=71.0, Qd=14.0 -> Pd=136.32, Qd=14.00
% INFO    : Bus 306	: Pd=136.0, Qd=28.0 -> Pd=261.13, Qd=28.00
% INFO    : Bus 307	: Pd=125.0, Qd=25.0 -> Pd=240.01, Qd=25.00
% INFO    : Bus 308	: Pd=171.0, Qd=35.0 -> Pd=328.33, Qd=35.00
% INFO    : Bus 309	: Pd=175.0, Qd=36.0 -> Pd=336.01, Qd=36.00
% INFO    : Bus 310	: Pd=195.0, Qd=40.0 -> Pd=374.41, Qd=40.00
% INFO    : Bus 313	: Pd=265.0, Qd=54.0 -> Pd=508.81, Qd=54.00
% INFO    : Bus 314	: Pd=194.0, Qd=39.0 -> Pd=372.49, Qd=39.00
% INFO    : Bus 315	: Pd=317.0, Qd=64.0 -> Pd=608.66, Qd=64.00
% INFO    : Bus 316	: Pd=100.0, Qd=20.0 -> Pd=192.00, Qd=20.00
% INFO    : Bus 318	: Pd=333.0, Qd=68.0 -> Pd=639.38, Qd=68.00
% INFO    : Bus 319	: Pd=181.0, Qd=37.0 -> Pd=347.53, Qd=37.00
% INFO    : Bus 320	: Pd=128.0, Qd=26.0 -> Pd=245.77, Qd=26.00
% INFO    : 
% INFO    : === Generator Setpoint Replacement Notes ===
% INFO    : Gen at bus 101	: Pg=18.0, Qg=5.0 -> Pg=72.0, Qg=2.0
% INFO    : Gen at bus 101	: Pg=18.0, Qg=5.0 -> Pg=72.0, Qg=2.0
% INFO    : Gen at bus 101	: Pg=45.6, Qg=2.5 -> Pg=71.0, Qg=2.0
% INFO    : Gen at bus 101	: Pg=45.6, Qg=2.5 -> Pg=71.0, Qg=2.0
% INFO    : Gen at bus 102	: Pg=18.0, Qg=5.0 -> Pg=158.0, Qg=29.0
% INFO    : Gen at bus 102	: Pg=18.0, Qg=5.0 -> Pg=158.0, Qg=29.0
% INFO    : Gen at bus 102	: Pg=45.6, Qg=2.5 -> Pg=157.0, Qg=29.0
% INFO    : Gen at bus 102	: Pg=45.6, Qg=2.5 -> Pg=157.0, Qg=29.0
% INFO    : Gen at bus 107	: Pg=62.5, Qg=30.0 -> Pg=129.0, Qg=53.0
% INFO    : Gen at bus 107	: Pg=62.5, Qg=30.0 -> Pg=129.0, Qg=53.0
% INFO    : Gen at bus 107	: Pg=62.5, Qg=30.0 -> Pg=129.0, Qg=53.0
% INFO    : Gen at bus 113	: Pg=133.0, Qg=40.0 -> Pg=447.0, Qg=102.0
% INFO    : Gen at bus 113	: Pg=133.0, Qg=40.0 -> Pg=447.0, Qg=102.0
% INFO    : Gen at bus 113	: Pg=133.0, Qg=40.0 -> Pg=447.0, Qg=102.0
% INFO    : Gen at bus 114	: Pg=0.0, Qg=75.0 -> Pg=0.0, Qg=233.0
% INFO    : Gen at bus 115	: Pg=7.2, Qg=3.0 -> Pg=107.0, Qg=85.0
% INFO    : Gen at bus 115	: Pg=7.2, Qg=3.0 -> Pg=107.0, Qg=85.0
% INFO    : Gen at bus 115	: Pg=7.2, Qg=3.0 -> Pg=107.0, Qg=85.0
% INFO    : Gen at bus 115	: Pg=7.2, Qg=3.0 -> Pg=107.0, Qg=85.0
% INFO    : Gen at bus 115	: Pg=7.2, Qg=3.0 -> Pg=107.0, Qg=85.0
% INFO    : Gen at bus 115	: Pg=104.65, Qg=15.0 -> Pg=159.0, Qg=85.0
% INFO    : Gen at bus 116	: Pg=104.65, Qg=15.0 -> Pg=693.0, Qg=-40.0
% INFO    : Gen at bus 118	: Pg=250.0, Qg=75.0 -> Pg=315.0, Qg=24.0
% INFO    : Gen at bus 121	: Pg=250.0, Qg=75.0 -> Pg=206.0, Qg=-159.0
% INFO    : Gen at bus 122	: Pg=30.0, Qg=3.0 -> Pg=68.0, Qg=-9.0
% INFO    : Gen at bus 122	: Pg=30.0, Qg=3.0 -> Pg=68.0, Qg=-9.0
% INFO    : Gen at bus 122	: Pg=30.0, Qg=3.0 -> Pg=68.0, Qg=-9.0
% INFO    : Gen at bus 122	: Pg=30.0, Qg=3.0 -> Pg=68.0, Qg=-9.0
% INFO    : Gen at bus 122	: Pg=30.0, Qg=3.0 -> Pg=68.0, Qg=-9.0
% INFO    : Gen at bus 122	: Pg=30.0, Qg=3.0 -> Pg=68.0, Qg=-9.0
% INFO    : Gen at bus 123	: Pg=104.65, Qg=15.0 -> Pg=294.0, Qg=18.0
% INFO    : Gen at bus 123	: Pg=104.65, Qg=15.0 -> Pg=294.0, Qg=17.0
% INFO    : Gen at bus 123	: Pg=245.0, Qg=62.5 -> Pg=379.0, Qg=18.0
% INFO    : Gen at bus 201	: Pg=18.0, Qg=5.0 -> Pg=69.0, Qg=1.0
% INFO    : Gen at bus 201	: Pg=18.0, Qg=5.0 -> Pg=69.0, Qg=1.0
% INFO    : Gen at bus 201	: Pg=45.6, Qg=2.5 -> Pg=68.0, Qg=1.0
% INFO    : Gen at bus 201	: Pg=45.6, Qg=2.5 -> Pg=68.0, Qg=1.0
% INFO    : Gen at bus 202	: Pg=18.0, Qg=5.0 -> Pg=157.0, Qg=29.0
% INFO    : Gen at bus 202	: Pg=18.0, Qg=5.0 -> Pg=157.0, Qg=29.0
% INFO    : Gen at bus 202	: Pg=45.6, Qg=2.5 -> Pg=156.0, Qg=29.0
% INFO    : Gen at bus 202	: Pg=45.6, Qg=2.5 -> Pg=156.0, Qg=29.0
% INFO    : Gen at bus 207	: Pg=62.5, Qg=30.0 -> Pg=126.0, Qg=41.0
% INFO    : Gen at bus 207	: Pg=62.5, Qg=30.0 -> Pg=126.0, Qg=41.0
% INFO    : Gen at bus 207	: Pg=62.5, Qg=30.0 -> Pg=126.0, Qg=41.0
% INFO    : Gen at bus 213	: Pg=133.0, Qg=40.0 -> Pg=384.0, Qg=105.0
% INFO    : Gen at bus 213	: Pg=133.0, Qg=40.0 -> Pg=384.0, Qg=105.0
% INFO    : Gen at bus 213	: Pg=133.0, Qg=40.0 -> Pg=384.0, Qg=105.0
% INFO    : Gen at bus 214	: Pg=0.0, Qg=75.0 -> Pg=0.0, Qg=232.0
% INFO    : Gen at bus 215	: Pg=7.2, Qg=3.0 -> Pg=121.0, Qg=60.0
% INFO    : Gen at bus 215	: Pg=7.2, Qg=3.0 -> Pg=121.0, Qg=60.0
% INFO    : Gen at bus 215	: Pg=7.2, Qg=3.0 -> Pg=121.0, Qg=60.0
% INFO    : Gen at bus 215	: Pg=7.2, Qg=3.0 -> Pg=121.0, Qg=60.0
% INFO    : Gen at bus 215	: Pg=7.2, Qg=3.0 -> Pg=121.0, Qg=60.0
% INFO    : Gen at bus 215	: Pg=104.65, Qg=15.0 -> Pg=173.0, Qg=60.0
% INFO    : Gen at bus 216	: Pg=104.65, Qg=15.0 -> Pg=460.0, Qg=1.0
% INFO    : Gen at bus 218	: Pg=250.0, Qg=75.0 -> Pg=285.0, Qg=43.0
% INFO    : Gen at bus 221	: Pg=250.0, Qg=75.0 -> Pg=200.0, Qg=-80.0
% INFO    : Gen at bus 222	: Pg=30.0, Qg=3.0 -> Pg=66.0, Qg=-8.0
% INFO    : Gen at bus 222	: Pg=30.0, Qg=3.0 -> Pg=66.0, Qg=-8.0
% INFO    : Gen at bus 222	: Pg=30.0, Qg=3.0 -> Pg=66.0, Qg=-8.0
% INFO    : Gen at bus 222	: Pg=30.0, Qg=3.0 -> Pg=66.0, Qg=-8.0
% INFO    : Gen at bus 222	: Pg=30.0, Qg=3.0 -> Pg=66.0, Qg=-8.0
% INFO    : Gen at bus 222	: Pg=30.0, Qg=3.0 -> Pg=66.0, Qg=-8.0
% INFO    : Gen at bus 223	: Pg=104.65, Qg=15.0 -> Pg=243.0, Qg=21.0
% INFO    : Gen at bus 223	: Pg=104.65, Qg=15.0 -> Pg=243.0, Qg=21.0
% INFO    : Gen at bus 223	: Pg=245.0, Qg=62.5 -> Pg=328.0, Qg=21.0
% INFO    : Gen at bus 301	: Pg=18.0, Qg=5.0 -> Pg=72.0, Qg=2.0
% INFO    : Gen at bus 301	: Pg=18.0, Qg=5.0 -> Pg=72.0, Qg=2.0
% INFO    : Gen at bus 301	: Pg=45.6, Qg=2.5 -> Pg=71.0, Qg=2.0
% INFO    : Gen at bus 301	: Pg=45.6, Qg=2.5 -> Pg=71.0, Qg=2.0
% INFO    : Gen at bus 302	: Pg=18.0, Qg=5.0 -> Pg=158.0, Qg=29.0
% INFO    : Gen at bus 302	: Pg=18.0, Qg=5.0 -> Pg=158.0, Qg=29.0
% INFO    : Gen at bus 302	: Pg=45.6, Qg=2.5 -> Pg=157.0, Qg=29.0
% INFO    : Gen at bus 302	: Pg=45.6, Qg=2.5 -> Pg=157.0, Qg=29.0
% INFO    : Gen at bus 307	: Pg=62.5, Qg=30.0 -> Pg=127.0, Qg=41.0
% INFO    : Gen at bus 307	: Pg=62.5, Qg=30.0 -> Pg=127.0, Qg=41.0
% INFO    : Gen at bus 307	: Pg=62.5, Qg=30.0 -> Pg=127.0, Qg=41.0
% INFO    : Gen at bus 313	: Pg=133.0, Qg=40.0 -> Pg=400.0, Qg=109.0
% INFO    : Gen at bus 313	: Pg=133.0, Qg=40.0 -> Pg=400.0, Qg=109.0
% INFO    : Gen at bus 313	: Pg=133.0, Qg=40.0 -> Pg=400.0, Qg=109.0
% INFO    : Gen at bus 314	: Pg=0.0, Qg=75.0 -> Pg=0.0, Qg=237.0
% INFO    : Gen at bus 315	: Pg=7.2, Qg=3.0 -> Pg=104.0, Qg=85.0
% INFO    : Gen at bus 315	: Pg=7.2, Qg=3.0 -> Pg=104.0, Qg=85.0
% INFO    : Gen at bus 315	: Pg=7.2, Qg=3.0 -> Pg=104.0, Qg=85.0
% INFO    : Gen at bus 315	: Pg=7.2, Qg=3.0 -> Pg=104.0, Qg=85.0
% INFO    : Gen at bus 315	: Pg=7.2, Qg=3.0 -> Pg=104.0, Qg=85.0
% INFO    : Gen at bus 315	: Pg=104.65, Qg=15.0 -> Pg=156.0, Qg=85.0
% INFO    : Gen at bus 316	: Pg=104.65, Qg=15.0 -> Pg=635.0, Qg=-30.0
% INFO    : Gen at bus 318	: Pg=250.0, Qg=75.0 -> Pg=284.0, Qg=-2.0
% INFO    : Gen at bus 321	: Pg=250.0, Qg=75.0 -> Pg=196.0, Qg=-128.0
% INFO    : Gen at bus 322	: Pg=30.0, Qg=3.0 -> Pg=67.0, Qg=-9.0
% INFO    : Gen at bus 322	: Pg=30.0, Qg=3.0 -> Pg=67.0, Qg=-9.0
% INFO    : Gen at bus 322	: Pg=30.0, Qg=3.0 -> Pg=67.0, Qg=-9.0
% INFO    : Gen at bus 322	: Pg=30.0, Qg=3.0 -> Pg=67.0, Qg=-9.0
% INFO    : Gen at bus 322	: Pg=30.0, Qg=3.0 -> Pg=67.0, Qg=-9.0
% INFO    : Gen at bus 322	: Pg=30.0, Qg=3.0 -> Pg=67.0, Qg=-9.0
% INFO    : Gen at bus 323	: Pg=104.65, Qg=15.0 -> Pg=245.0, Qg=14.0
% INFO    : Gen at bus 323	: Pg=104.65, Qg=15.0 -> Pg=245.0, Qg=14.0
% INFO    : Gen at bus 323	: Pg=245.0, Qg=62.5 -> Pg=331.0, Qg=14.0
% INFO    : 
% INFO    : === Generator Reactive Capacity Atleast Setpoint Value Notes ===
% INFO    : Gen at bus 101	: Qg 2.0, Qmin 0.0, Qmax 10.0 -> Qmin -2.4, Qmax 10.0
% INFO    : Gen at bus 101	: Qg 2.0, Qmin 0.0, Qmax 10.0 -> Qmin -2.4, Qmax 10.0
% INFO    : Gen at bus 102	: Qg 29.0, Qmin 0.0, Qmax 10.0 -> Qmin -34.8, Qmax 34.8
% INFO    : Gen at bus 102	: Qg 29.0, Qmin 0.0, Qmax 10.0 -> Qmin -34.8, Qmax 34.8
% INFO    : Gen at bus 102	: Qg 29.0, Qmin -25.0, Qmax 30.0 -> Qmin -34.8, Qmax 30.0
% INFO    : Gen at bus 102	: Qg 29.0, Qmin -25.0, Qmax 30.0 -> Qmin -34.8, Qmax 30.0
% INFO    : Gen at bus 107	: Qg 53.0, Qmin 0.0, Qmax 60.0 -> Qmin -63.6, Qmax 60.0
% INFO    : Gen at bus 107	: Qg 53.0, Qmin 0.0, Qmax 60.0 -> Qmin -63.6, Qmax 60.0
% INFO    : Gen at bus 107	: Qg 53.0, Qmin 0.0, Qmax 60.0 -> Qmin -63.6, Qmax 60.0
% INFO    : Gen at bus 113	: Qg 102.0, Qmin 0.0, Qmax 80.0 -> Qmin -122.4, Qmax 122.4
% INFO    : Gen at bus 113	: Qg 102.0, Qmin 0.0, Qmax 80.0 -> Qmin -122.4, Qmax 122.4
% INFO    : Gen at bus 113	: Qg 102.0, Qmin 0.0, Qmax 80.0 -> Qmin -122.4, Qmax 122.4
% INFO    : Gen at bus 114	: Qg 233.0, Qmin -50.0, Qmax 200.0 -> Qmin -279.6, Qmax 279.6
% INFO    : Gen at bus 115	: Qg 85.0, Qmin 0.0, Qmax 6.0 -> Qmin -102.0, Qmax 102.0
% INFO    : Gen at bus 115	: Qg 85.0, Qmin 0.0, Qmax 6.0 -> Qmin -102.0, Qmax 102.0
% INFO    : Gen at bus 115	: Qg 85.0, Qmin 0.0, Qmax 6.0 -> Qmin -102.0, Qmax 102.0
% INFO    : Gen at bus 115	: Qg 85.0, Qmin 0.0, Qmax 6.0 -> Qmin -102.0, Qmax 102.0
% INFO    : Gen at bus 115	: Qg 85.0, Qmin 0.0, Qmax 6.0 -> Qmin -102.0, Qmax 102.0
% INFO    : Gen at bus 115	: Qg 85.0, Qmin -50.0, Qmax 80.0 -> Qmin -102.0, Qmax 102.0
% INFO    : Gen at bus 121	: Qg -159.0, Qmin -50.0, Qmax 200.0 -> Qmin -190.8, Qmax 200.0
% INFO    : Gen at bus 201	: Qg 1.0, Qmin 0.0, Qmax 10.0 -> Qmin -1.2, Qmax 10.0
% INFO    : Gen at bus 201	: Qg 1.0, Qmin 0.0, Qmax 10.0 -> Qmin -1.2, Qmax 10.0
% INFO    : Gen at bus 202	: Qg 29.0, Qmin 0.0, Qmax 10.0 -> Qmin -34.8, Qmax 34.8
% INFO    : Gen at bus 202	: Qg 29.0, Qmin 0.0, Qmax 10.0 -> Qmin -34.8, Qmax 34.8
% INFO    : Gen at bus 202	: Qg 29.0, Qmin -25.0, Qmax 30.0 -> Qmin -34.8, Qmax 30.0
% INFO    : Gen at bus 202	: Qg 29.0, Qmin -25.0, Qmax 30.0 -> Qmin -34.8, Qmax 30.0
% INFO    : Gen at bus 207	: Qg 41.0, Qmin 0.0, Qmax 60.0 -> Qmin -49.2, Qmax 60.0
% INFO    : Gen at bus 207	: Qg 41.0, Qmin 0.0, Qmax 60.0 -> Qmin -49.2, Qmax 60.0
% INFO    : Gen at bus 207	: Qg 41.0, Qmin 0.0, Qmax 60.0 -> Qmin -49.2, Qmax 60.0
% INFO    : Gen at bus 213	: Qg 105.0, Qmin 0.0, Qmax 80.0 -> Qmin -126.0, Qmax 126.0
% INFO    : Gen at bus 213	: Qg 105.0, Qmin 0.0, Qmax 80.0 -> Qmin -126.0, Qmax 126.0
% INFO    : Gen at bus 213	: Qg 105.0, Qmin 0.0, Qmax 80.0 -> Qmin -126.0, Qmax 126.0
% INFO    : Gen at bus 214	: Qg 232.0, Qmin -50.0, Qmax 200.0 -> Qmin -278.4, Qmax 278.4
% INFO    : Gen at bus 215	: Qg 60.0, Qmin 0.0, Qmax 6.0 -> Qmin -72.0, Qmax 72.0
% INFO    : Gen at bus 215	: Qg 60.0, Qmin 0.0, Qmax 6.0 -> Qmin -72.0, Qmax 72.0
% INFO    : Gen at bus 215	: Qg 60.0, Qmin 0.0, Qmax 6.0 -> Qmin -72.0, Qmax 72.0
% INFO    : Gen at bus 215	: Qg 60.0, Qmin 0.0, Qmax 6.0 -> Qmin -72.0, Qmax 72.0
% INFO    : Gen at bus 215	: Qg 60.0, Qmin 0.0, Qmax 6.0 -> Qmin -72.0, Qmax 72.0
% INFO    : Gen at bus 215	: Qg 60.0, Qmin -50.0, Qmax 80.0 -> Qmin -72.0, Qmax 80.0
% INFO    : Gen at bus 221	: Qg -80.0, Qmin -50.0, Qmax 200.0 -> Qmin -96.0, Qmax 200.0
% INFO    : Gen at bus 301	: Qg 2.0, Qmin 0.0, Qmax 10.0 -> Qmin -2.4, Qmax 10.0
% INFO    : Gen at bus 301	: Qg 2.0, Qmin 0.0, Qmax 10.0 -> Qmin -2.4, Qmax 10.0
% INFO    : Gen at bus 302	: Qg 29.0, Qmin 0.0, Qmax 10.0 -> Qmin -34.8, Qmax 34.8
% INFO    : Gen at bus 302	: Qg 29.0, Qmin 0.0, Qmax 10.0 -> Qmin -34.8, Qmax 34.8
% INFO    : Gen at bus 302	: Qg 29.0, Qmin -25.0, Qmax 30.0 -> Qmin -34.8, Qmax 30.0
% INFO    : Gen at bus 302	: Qg 29.0, Qmin -25.0, Qmax 30.0 -> Qmin -34.8, Qmax 30.0
% INFO    : Gen at bus 307	: Qg 41.0, Qmin 0.0, Qmax 60.0 -> Qmin -49.2, Qmax 60.0
% INFO    : Gen at bus 307	: Qg 41.0, Qmin 0.0, Qmax 60.0 -> Qmin -49.2, Qmax 60.0
% INFO    : Gen at bus 307	: Qg 41.0, Qmin 0.0, Qmax 60.0 -> Qmin -49.2, Qmax 60.0
% INFO    : Gen at bus 313	: Qg 109.0, Qmin 0.0, Qmax 80.0 -> Qmin -130.8, Qmax 130.8
% INFO    : Gen at bus 313	: Qg 109.0, Qmin 0.0, Qmax 80.0 -> Qmin -130.8, Qmax 130.8
% INFO    : Gen at bus 313	: Qg 109.0, Qmin 0.0, Qmax 80.0 -> Qmin -130.8, Qmax 130.8
% INFO    : Gen at bus 314	: Qg 237.0, Qmin -50.0, Qmax 200.0 -> Qmin -284.4, Qmax 284.4
% INFO    : Gen at bus 315	: Qg 85.0, Qmin 0.0, Qmax 6.0 -> Qmin -102.0, Qmax 102.0
% INFO    : Gen at bus 315	: Qg 85.0, Qmin 0.0, Qmax 6.0 -> Qmin -102.0, Qmax 102.0
% INFO    : Gen at bus 315	: Qg 85.0, Qmin 0.0, Qmax 6.0 -> Qmin -102.0, Qmax 102.0
% INFO    : Gen at bus 315	: Qg 85.0, Qmin 0.0, Qmax 6.0 -> Qmin -102.0, Qmax 102.0
% INFO    : Gen at bus 315	: Qg 85.0, Qmin 0.0, Qmax 6.0 -> Qmin -102.0, Qmax 102.0
% INFO    : Gen at bus 315	: Qg 85.0, Qmin -50.0, Qmax 80.0 -> Qmin -102.0, Qmax 102.0
% INFO    : Gen at bus 321	: Qg -128.0, Qmin -50.0, Qmax 200.0 -> Qmin -153.6, Qmax 200.0
% INFO    : 
% INFO    : === Generator Classification Notes ===
% INFO    : PEL    12  -     8.14
% INFO    : SYNC   3   -     0.00
% INFO    : COW    17  -    16.20
% INFO    : NG     67  -    75.67
% INFO    : 
% INFO    : === Generator Active Capacity Stat Model Notes ===
% INFO    : Gen at bus 101 - COW	: Pg=72.0, Pmax=20.0 -> Pmax=85   samples: 2
% INFO    : Gen at bus 101 - PEL	: Pg=72.0, Pmax=20.0 -> Pmax=97   samples: 1
% INFO    : Gen at bus 101 - COW	: Pg=71.0, Pmax=76.0 -> Pmax=197   samples: 1
% INFO    : Gen at bus 101 - PEL	: Pg=71.0, Pmax=76.0 -> Pmax=119   samples: 2
% INFO    : Gen at bus 102 - PEL	: Pg=158.0, Pmax=20.0 -> Pmax=284   samples: 69
% WARNING : Failed to find a generator capacity within (158.0-790.0) after 100 samples, using percent increase model
% INFO    : Gen at bus 102 - PEL	: Pg=158.0, Pmax=20.0 -> Pmax=183   samples: 100
% INFO    : Gen at bus 102 - PEL	: Pg=157.0, Pmax=76.0 -> Pmax=159   samples: 9
% INFO    : Gen at bus 102 - NG	: Pg=157.0, Pmax=76.0 -> Pmax=218   samples: 2
% INFO    : Gen at bus 107 - COW	: Pg=129.0, Pmax=100.0 -> Pmax=420   samples: 1
% INFO    : Gen at bus 107 - NG	: Pg=129.0, Pmax=100.0 -> Pmax=263   samples: 4
% INFO    : Gen at bus 107 - NG	: Pg=129.0, Pmax=100.0 -> Pmax=277   samples: 1
% INFO    : Gen at bus 113 - NG	: Pg=447.0, Pmax=197.0 -> Pmax=461   samples: 59
% WARNING : Failed to find a generator capacity within (447.0-2235.0) after 100 samples, using percent increase model
% INFO    : Gen at bus 113 - NG	: Pg=447.0, Pmax=197.0 -> Pmax=504   samples: 100
% INFO    : Gen at bus 113 - COW	: Pg=447.0, Pmax=197.0 -> Pmax=2052   samples: 1
% INFO    : Gen at bus 114 - SYNC	: Pg=0.0, Pmax=0.0 -> Pmax=0   samples: 0
% INFO    : Gen at bus 115 - NG	: Pg=107.0, Pmax=12.0 -> Pmax=165   samples: 3
% INFO    : Gen at bus 115 - COW	: Pg=107.0, Pmax=12.0 -> Pmax=214   samples: 1
% INFO    : Gen at bus 115 - COW	: Pg=107.0, Pmax=12.0 -> Pmax=395   samples: 1
% INFO    : Gen at bus 115 - NG	: Pg=107.0, Pmax=12.0 -> Pmax=274   samples: 3
% INFO    : Gen at bus 115 - NG	: Pg=107.0, Pmax=12.0 -> Pmax=151   samples: 1
% INFO    : Gen at bus 115 - NG	: Pg=159.0, Pmax=155.0 -> Pmax=254   samples: 1
% WARNING : Failed to find a generator capacity within (693.0-3465.0) after 100 samples, using percent increase model
% INFO    : Gen at bus 116 - NG	: Pg=693.0, Pmax=155.0 -> Pmax=782   samples: 100
% INFO    : Gen at bus 118 - NG	: Pg=315.0, Pmax=400.0 -> Pmax=474   samples: 11
% INFO    : Gen at bus 121 - NG	: Pg=206.0, Pmax=400.0 -> Pmax=248   samples: 3
% INFO    : Gen at bus 122 - NG	: Pg=68.0, Pmax=50.0 -> Pmax=305   samples: 1
% INFO    : Gen at bus 122 - COW	: Pg=68.0, Pmax=50.0 -> Pmax=152   samples: 1
% INFO    : Gen at bus 122 - NG	: Pg=68.0, Pmax=50.0 -> Pmax=121   samples: 1
% INFO    : Gen at bus 122 - NG	: Pg=68.0, Pmax=50.0 -> Pmax=118   samples: 1
% INFO    : Gen at bus 122 - NG	: Pg=68.0, Pmax=50.0 -> Pmax=186   samples: 2
% INFO    : Gen at bus 122 - NG	: Pg=68.0, Pmax=50.0 -> Pmax=125   samples: 2
% INFO    : Gen at bus 123 - NG	: Pg=294.0, Pmax=155.0 -> Pmax=592   samples: 20
% INFO    : Gen at bus 123 - NG	: Pg=294.0, Pmax=155.0 -> Pmax=316   samples: 9
% INFO    : Gen at bus 123 - COW	: Pg=379.0, Pmax=350.0 -> Pmax=446   samples: 4
% INFO    : Gen at bus 201 - NG	: Pg=69.0, Pmax=20.0 -> Pmax=114   samples: 1
% INFO    : Gen at bus 201 - PEL	: Pg=69.0, Pmax=20.0 -> Pmax=82   samples: 3
% INFO    : Gen at bus 201 - NG	: Pg=68.0, Pmax=76.0 -> Pmax=132   samples: 2
% INFO    : Gen at bus 201 - NG	: Pg=68.0, Pmax=76.0 -> Pmax=143   samples: 1
% INFO    : Gen at bus 202 - COW	: Pg=157.0, Pmax=20.0 -> Pmax=784   samples: 3
% INFO    : Gen at bus 202 - PEL	: Pg=157.0, Pmax=20.0 -> Pmax=233   samples: 3
% INFO    : Gen at bus 202 - NG	: Pg=156.0, Pmax=76.0 -> Pmax=203   samples: 3
% INFO    : Gen at bus 202 - NG	: Pg=156.0, Pmax=76.0 -> Pmax=473   samples: 1
% INFO    : Gen at bus 207 - NG	: Pg=126.0, Pmax=100.0 -> Pmax=174   samples: 3
% INFO    : Gen at bus 207 - NG	: Pg=126.0, Pmax=100.0 -> Pmax=426   samples: 2
% INFO    : Gen at bus 207 - NG	: Pg=126.0, Pmax=100.0 -> Pmax=132   samples: 3
% INFO    : Gen at bus 213 - NG	: Pg=384.0, Pmax=197.0 -> Pmax=427   samples: 18
% INFO    : Gen at bus 213 - NG	: Pg=384.0, Pmax=197.0 -> Pmax=448   samples: 26
% INFO    : Gen at bus 213 - NG	: Pg=384.0, Pmax=197.0 -> Pmax=664   samples: 18
% INFO    : Gen at bus 214 - SYNC	: Pg=0.0, Pmax=0.0 -> Pmax=0   samples: 0
% INFO    : Gen at bus 215 - COW	: Pg=121.0, Pmax=12.0 -> Pmax=292   samples: 1
% INFO    : Gen at bus 215 - NG	: Pg=121.0, Pmax=12.0 -> Pmax=369   samples: 1
% INFO    : Gen at bus 215 - NG	: Pg=121.0, Pmax=12.0 -> Pmax=210   samples: 3
% INFO    : Gen at bus 215 - COW	: Pg=121.0, Pmax=12.0 -> Pmax=421   samples: 1
% INFO    : Gen at bus 215 - NG	: Pg=121.0, Pmax=12.0 -> Pmax=303   samples: 5
% INFO    : Gen at bus 215 - NG	: Pg=173.0, Pmax=155.0 -> Pmax=189   samples: 1
% INFO    : Gen at bus 216 - NG	: Pg=460.0, Pmax=155.0 -> Pmax=651   samples: 48
% INFO    : Gen at bus 218 - NG	: Pg=285.0, Pmax=400.0 -> Pmax=336   samples: 54
% INFO    : Gen at bus 221 - NG	: Pg=200.0, Pmax=400.0 -> Pmax=289   samples: 8
% INFO    : Gen at bus 222 - NG	: Pg=66.0, Pmax=50.0 -> Pmax=194   samples: 1
% INFO    : Gen at bus 222 - NG	: Pg=66.0, Pmax=50.0 -> Pmax=167   samples: 2
% INFO    : Gen at bus 222 - NG	: Pg=66.0, Pmax=50.0 -> Pmax=243   samples: 2
% INFO    : Gen at bus 222 - NG	: Pg=66.0, Pmax=50.0 -> Pmax=103   samples: 2
% INFO    : Gen at bus 222 - NG	: Pg=66.0, Pmax=50.0 -> Pmax=175   samples: 2
% INFO    : Gen at bus 222 - NG	: Pg=66.0, Pmax=50.0 -> Pmax=95   samples: 3
% INFO    : Gen at bus 223 - NG	: Pg=243.0, Pmax=155.0 -> Pmax=257   samples: 18
% INFO    : Gen at bus 223 - NG	: Pg=243.0, Pmax=155.0 -> Pmax=342   samples: 17
% INFO    : Gen at bus 223 - NG	: Pg=328.0, Pmax=350.0 -> Pmax=553   samples: 9
% INFO    : Gen at bus 301 - NG	: Pg=72.0, Pmax=20.0 -> Pmax=237   samples: 2
% INFO    : Gen at bus 301 - PEL	: Pg=72.0, Pmax=20.0 -> Pmax=138   samples: 3
% INFO    : Gen at bus 301 - PEL	: Pg=71.0, Pmax=76.0 -> Pmax=203   samples: 1
% INFO    : Gen at bus 301 - NG	: Pg=71.0, Pmax=76.0 -> Pmax=140   samples: 1
% INFO    : Gen at bus 302 - NG	: Pg=158.0, Pmax=20.0 -> Pmax=296   samples: 4
% INFO    : Gen at bus 302 - PEL	: Pg=158.0, Pmax=20.0 -> Pmax=182   samples: 3
% INFO    : Gen at bus 302 - PEL	: Pg=157.0, Pmax=76.0 -> Pmax=166   samples: 12
% INFO    : Gen at bus 302 - NG	: Pg=157.0, Pmax=76.0 -> Pmax=179   samples: 1
% INFO    : Gen at bus 307 - COW	: Pg=127.0, Pmax=100.0 -> Pmax=147   samples: 2
% INFO    : Gen at bus 307 - NG	: Pg=127.0, Pmax=100.0 -> Pmax=283   samples: 2
% INFO    : Gen at bus 307 - COW	: Pg=127.0, Pmax=100.0 -> Pmax=220   samples: 1
% INFO    : Gen at bus 313 - NG	: Pg=400.0, Pmax=197.0 -> Pmax=513   samples: 1
% INFO    : Gen at bus 313 - NG	: Pg=400.0, Pmax=197.0 -> Pmax=521   samples: 11
% INFO    : Gen at bus 313 - NG	: Pg=400.0, Pmax=197.0 -> Pmax=610   samples: 19
% INFO    : Gen at bus 314 - SYNC	: Pg=0.0, Pmax=0.0 -> Pmax=0   samples: 0
% INFO    : Gen at bus 315 - COW	: Pg=104.0, Pmax=12.0 -> Pmax=404   samples: 2
% INFO    : Gen at bus 315 - COW	: Pg=104.0, Pmax=12.0 -> Pmax=202   samples: 7
% INFO    : Gen at bus 315 - NG	: Pg=104.0, Pmax=12.0 -> Pmax=295   samples: 2
% INFO    : Gen at bus 315 - NG	: Pg=104.0, Pmax=12.0 -> Pmax=379   samples: 4
% INFO    : Gen at bus 315 - NG	: Pg=104.0, Pmax=12.0 -> Pmax=109   samples: 2
% INFO    : Gen at bus 315 - NG	: Pg=156.0, Pmax=155.0 -> Pmax=198   samples: 2
% WARNING : Failed to find a generator capacity within (635.0-3175.0) after 100 samples, using percent increase model
% INFO    : Gen at bus 316 - NG	: Pg=635.0, Pmax=155.0 -> Pmax=717   samples: 100
% INFO    : Gen at bus 318 - COW	: Pg=284.0, Pmax=400.0 -> Pmax=585   samples: 5
% INFO    : Gen at bus 321 - COW	: Pg=196.0, Pmax=400.0 -> Pmax=281   samples: 2
% INFO    : Gen at bus 322 - PEL	: Pg=67.0, Pmax=50.0 -> Pmax=91   samples: 8
% INFO    : Gen at bus 322 - NG	: Pg=67.0, Pmax=50.0 -> Pmax=162   samples: 2
% INFO    : Gen at bus 322 - NG	: Pg=67.0, Pmax=50.0 -> Pmax=123   samples: 5
% INFO    : Gen at bus 322 - NG	: Pg=67.0, Pmax=50.0 -> Pmax=67   samples: 1
% INFO    : Gen at bus 322 - NG	: Pg=67.0, Pmax=50.0 -> Pmax=123   samples: 3
% INFO    : Gen at bus 322 - NG	: Pg=67.0, Pmax=50.0 -> Pmax=171   samples: 1
% INFO    : Gen at bus 323 - NG	: Pg=245.0, Pmax=155.0 -> Pmax=283   samples: 5
% INFO    : Gen at bus 323 - NG	: Pg=245.0, Pmax=155.0 -> Pmax=358   samples: 14
% INFO    : Gen at bus 323 - NG	: Pg=331.0, Pmax=350.0 -> Pmax=335   samples: 28
% INFO    : 
% INFO    : === Generator Active Capacity LB Model Notes ===
% INFO    : Gen at bus 101	: Pmin=16.0 -> Pmin=8.0 
% INFO    : Gen at bus 101	: Pmin=16.0 -> Pmin=8.0 
% INFO    : Gen at bus 101	: Pmin=15.2 -> Pmin=7.6 
% INFO    : Gen at bus 101	: Pmin=15.2 -> Pmin=7.6 
% INFO    : Gen at bus 102	: Pmin=16.0 -> Pmin=8.0 
% INFO    : Gen at bus 102	: Pmin=16.0 -> Pmin=8.0 
% INFO    : Gen at bus 102	: Pmin=15.2 -> Pmin=7.6 
% INFO    : Gen at bus 102	: Pmin=15.2 -> Pmin=7.6 
% INFO    : Gen at bus 107	: Pmin=25.0 -> Pmin=12.5 
% INFO    : Gen at bus 107	: Pmin=25.0 -> Pmin=12.5 
% INFO    : Gen at bus 107	: Pmin=25.0 -> Pmin=12.5 
% INFO    : Gen at bus 113	: Pmin=69.0 -> Pmin=34.5 
% INFO    : Gen at bus 113	: Pmin=69.0 -> Pmin=34.5 
% INFO    : Gen at bus 113	: Pmin=69.0 -> Pmin=34.5 
% INFO    : Gen at bus 115	: Pmin=2.4 -> Pmin=1.2 
% INFO    : Gen at bus 115	: Pmin=2.4 -> Pmin=1.2 
% INFO    : Gen at bus 115	: Pmin=2.4 -> Pmin=1.2 
% INFO    : Gen at bus 115	: Pmin=2.4 -> Pmin=1.2 
% INFO    : Gen at bus 115	: Pmin=2.4 -> Pmin=1.2 
% INFO    : Gen at bus 115	: Pmin=54.3 -> Pmin=27.15 
% INFO    : Gen at bus 116	: Pmin=54.3 -> Pmin=27.15 
% INFO    : Gen at bus 118	: Pmin=100.0 -> Pmin=50.0 
% INFO    : Gen at bus 121	: Pmin=100.0 -> Pmin=50.0 
% INFO    : Gen at bus 122	: Pmin=10.0 -> Pmin=5.0 
% INFO    : Gen at bus 122	: Pmin=10.0 -> Pmin=5.0 
% INFO    : Gen at bus 122	: Pmin=10.0 -> Pmin=5.0 
% INFO    : Gen at bus 122	: Pmin=10.0 -> Pmin=5.0 
% INFO    : Gen at bus 122	: Pmin=10.0 -> Pmin=5.0 
% INFO    : Gen at bus 122	: Pmin=10.0 -> Pmin=5.0 
% INFO    : Gen at bus 123	: Pmin=54.3 -> Pmin=27.15 
% INFO    : Gen at bus 123	: Pmin=54.3 -> Pmin=27.15 
% INFO    : Gen at bus 123	: Pmin=140.0 -> Pmin=70.0 
% INFO    : Gen at bus 201	: Pmin=16.0 -> Pmin=8.0 
% INFO    : Gen at bus 201	: Pmin=16.0 -> Pmin=8.0 
% INFO    : Gen at bus 201	: Pmin=15.2 -> Pmin=7.6 
% INFO    : Gen at bus 201	: Pmin=15.2 -> Pmin=7.6 
% INFO    : Gen at bus 202	: Pmin=16.0 -> Pmin=8.0 
% INFO    : Gen at bus 202	: Pmin=16.0 -> Pmin=8.0 
% INFO    : Gen at bus 202	: Pmin=15.2 -> Pmin=7.6 
% INFO    : Gen at bus 202	: Pmin=15.2 -> Pmin=7.6 
% INFO    : Gen at bus 207	: Pmin=25.0 -> Pmin=12.5 
% INFO    : Gen at bus 207	: Pmin=25.0 -> Pmin=12.5 
% INFO    : Gen at bus 207	: Pmin=25.0 -> Pmin=12.5 
% INFO    : Gen at bus 213	: Pmin=69.0 -> Pmin=34.5 
% INFO    : Gen at bus 213	: Pmin=69.0 -> Pmin=34.5 
% INFO    : Gen at bus 213	: Pmin=69.0 -> Pmin=34.5 
% INFO    : Gen at bus 215	: Pmin=2.4 -> Pmin=1.2 
% INFO    : Gen at bus 215	: Pmin=2.4 -> Pmin=1.2 
% INFO    : Gen at bus 215	: Pmin=2.4 -> Pmin=1.2 
% INFO    : Gen at bus 215	: Pmin=2.4 -> Pmin=1.2 
% INFO    : Gen at bus 215	: Pmin=2.4 -> Pmin=1.2 
% INFO    : Gen at bus 215	: Pmin=54.3 -> Pmin=27.15 
% INFO    : Gen at bus 216	: Pmin=54.3 -> Pmin=27.15 
% INFO    : Gen at bus 218	: Pmin=100.0 -> Pmin=50.0 
% INFO    : Gen at bus 221	: Pmin=100.0 -> Pmin=50.0 
% INFO    : Gen at bus 222	: Pmin=10.0 -> Pmin=5.0 
% INFO    : Gen at bus 222	: Pmin=10.0 -> Pmin=5.0 
% INFO    : Gen at bus 222	: Pmin=10.0 -> Pmin=5.0 
% INFO    : Gen at bus 222	: Pmin=10.0 -> Pmin=5.0 
% INFO    : Gen at bus 222	: Pmin=10.0 -> Pmin=5.0 
% INFO    : Gen at bus 222	: Pmin=10.0 -> Pmin=5.0 
% INFO    : Gen at bus 223	: Pmin=54.3 -> Pmin=27.15 
% INFO    : Gen at bus 223	: Pmin=54.3 -> Pmin=27.15 
% INFO    : Gen at bus 223	: Pmin=140.0 -> Pmin=70.0 
% INFO    : Gen at bus 301	: Pmin=16.0 -> Pmin=8.0 
% INFO    : Gen at bus 301	: Pmin=16.0 -> Pmin=8.0 
% INFO    : Gen at bus 301	: Pmin=15.2 -> Pmin=7.6 
% INFO    : Gen at bus 301	: Pmin=15.2 -> Pmin=7.6 
% INFO    : Gen at bus 302	: Pmin=16.0 -> Pmin=8.0 
% INFO    : Gen at bus 302	: Pmin=16.0 -> Pmin=8.0 
% INFO    : Gen at bus 302	: Pmin=15.2 -> Pmin=7.6 
% INFO    : Gen at bus 302	: Pmin=15.2 -> Pmin=7.6 
% INFO    : Gen at bus 307	: Pmin=25.0 -> Pmin=12.5 
% INFO    : Gen at bus 307	: Pmin=25.0 -> Pmin=12.5 
% INFO    : Gen at bus 307	: Pmin=25.0 -> Pmin=12.5 
% INFO    : Gen at bus 313	: Pmin=69.0 -> Pmin=34.5 
% INFO    : Gen at bus 313	: Pmin=69.0 -> Pmin=34.5 
% INFO    : Gen at bus 313	: Pmin=69.0 -> Pmin=34.5 
% INFO    : Gen at bus 315	: Pmin=2.4 -> Pmin=1.2 
% INFO    : Gen at bus 315	: Pmin=2.4 -> Pmin=1.2 
% INFO    : Gen at bus 315	: Pmin=2.4 -> Pmin=1.2 
% INFO    : Gen at bus 315	: Pmin=2.4 -> Pmin=1.2 
% INFO    : Gen at bus 315	: Pmin=2.4 -> Pmin=1.2 
% INFO    : Gen at bus 315	: Pmin=54.3 -> Pmin=27.15 
% INFO    : Gen at bus 316	: Pmin=54.3 -> Pmin=27.15 
% INFO    : Gen at bus 318	: Pmin=100.0 -> Pmin=50.0 
% INFO    : Gen at bus 321	: Pmin=100.0 -> Pmin=50.0 
% INFO    : Gen at bus 322	: Pmin=10.0 -> Pmin=5.0 
% INFO    : Gen at bus 322	: Pmin=10.0 -> Pmin=5.0 
% INFO    : Gen at bus 322	: Pmin=10.0 -> Pmin=5.0 
% INFO    : Gen at bus 322	: Pmin=10.0 -> Pmin=5.0 
% INFO    : Gen at bus 322	: Pmin=10.0 -> Pmin=5.0 
% INFO    : Gen at bus 322	: Pmin=10.0 -> Pmin=5.0 
% INFO    : Gen at bus 323	: Pmin=54.3 -> Pmin=27.15 
% INFO    : Gen at bus 323	: Pmin=54.3 -> Pmin=27.15 
% INFO    : Gen at bus 323	: Pmin=140.0 -> Pmin=70.0 
% INFO    : 
% INFO    : === Generator Reactive Capacity Atleast Max 50 Percent Active Model Notes ===
% INFO    : Gen at bus 101 - COW	: Pmax 85.0, Qmin -2.4, Qmax 10.0 -> Qmin -43.0, Qmax 43.0
% INFO    : Gen at bus 101 - PEL	: Pmax 97.0, Qmin -2.4, Qmax 10.0 -> Qmin -49.0, Qmax 49.0
% INFO    : Gen at bus 101 - COW	: Pmax 197.0, Qmin -25.0, Qmax 30.0 -> Qmin -99.0, Qmax 99.0
% INFO    : Gen at bus 101 - PEL	: Pmax 119.0, Qmin -25.0, Qmax 30.0 -> Qmin -60.0, Qmax 60.0
% INFO    : Gen at bus 102 - PEL	: Pmax 284.0, Qmin -34.8, Qmax 34.8 -> Qmin -142.0, Qmax 142.0
% INFO    : Gen at bus 102 - PEL	: Pmax 183.0, Qmin -34.8, Qmax 34.8 -> Qmin -92.0, Qmax 92.0
% INFO    : Gen at bus 102 - PEL	: Pmax 159.0, Qmin -34.8, Qmax 30.0 -> Qmin -80.0, Qmax 80.0
% INFO    : Gen at bus 102 - NG	: Pmax 218.0, Qmin -34.8, Qmax 30.0 -> Qmin -109.0, Qmax 109.0
% INFO    : Gen at bus 107 - COW	: Pmax 420.0, Qmin -63.6, Qmax 60.0 -> Qmin -210.0, Qmax 210.0
% INFO    : Gen at bus 107 - NG	: Pmax 263.0, Qmin -63.6, Qmax 60.0 -> Qmin -132.0, Qmax 132.0
% INFO    : Gen at bus 107 - NG	: Pmax 277.0, Qmin -63.6, Qmax 60.0 -> Qmin -139.0, Qmax 139.0
% INFO    : Gen at bus 113 - NG	: Pmax 461.0, Qmin -122.4, Qmax 122.4 -> Qmin -231.0, Qmax 231.0
...